<?xml version="1.0" encoding="UTF-8"?>

<!-- generated on 2024-12-02 18:11:01.052846 by randomTrips.py UNKNOWN
<configuration>
    <net-file value="4x4.net.xml"/>
    <route-file value="4x4.rou.xml"/>
    <end value="600.0"/>
    <period value="1.5"/>
    <random-depart value="True"/>
</configuration>
-->

<!-- generated on 2024-12-02 18:11:01 by Eclipse SUMO duarouter Version 1.21.0
<duarouterConfiguration xmlns:xsi="http://www.w3.org/2001/XMLSchema-instance" xsi:noNamespaceSchemaLocation="http://sumo.dlr.de/xsd/duarouterConfiguration.xsd">

    <input>
        <net-file value="4x4.net.xml"/>
        <route-files value="trips.trips.xml"/>
    </input>

    <output>
        <output-file value="4x4.rou.xml"/>
        <alternatives-output value="NUL"/>
    </output>

    <time>
        <begin value="0.0"/>
        <end value="600.0"/>
    </time>

    <report>
        <no-warnings value="true"/>
        <ignore-errors value="true"/>
        <no-step-log value="true"/>
    </report>

</duarouterConfiguration>
-->

<routes xmlns:xsi="http://www.w3.org/2001/XMLSchema-instance" xsi:noNamespaceSchemaLocation="http://sumo.dlr.de/xsd/routes_file.xsd">
    <vehicle id="1" depart="0.50">
        <route edges="12to13 13to14 14to15 15to31"/>
    </vehicle>
    <vehicle id="3" depart="3.50">
        <route edges="0to4 4to5 5to9 9to13 13to25"/>
    </vehicle>
    <vehicle id="4" depart="3.50">
        <route edges="17to1 1to2 2to6 6to7 7to29"/>
    </vehicle>
    <vehicle id="6" depart="6.50">
        <route edges="16to0 0to1 1to5 5to6 6to7"/>
    </vehicle>
    <vehicle id="10" depart="11.50">
        <route edges="16to0 0to1 1to5 5to6 6to10 10to11 11to15"/>
    </vehicle>
    <vehicle id="11" depart="12.00">
        <route edges="0to4 4to5 5to6 6to7"/>
    </vehicle>
    <vehicle id="12" depart="14.00">
        <route edges="2to6 6to7 7to11"/>
    </vehicle>
    <vehicle id="14" depart="21.50">
        <route edges="20to0 0to4 4to5 5to9 9to13 13to25"/>
    </vehicle>
    <vehicle id="20" depart="31.50">
        <route edges="4to5 5to6 6to7 7to29"/>
    </vehicle>
    <vehicle id="25" depart="40.50">
        <route edges="20to0 0to4 4to5 5to9 9to13 13to14"/>
    </vehicle>
    <vehicle id="26" depart="42.50">
        <route edges="9to13 13to14 14to15 15to31"/>
    </vehicle>
    <vehicle id="28" depart="48.00">
        <route edges="21to4 4to8 8to9 9to13 13to14 14to15 15to31"/>
    </vehicle>
    <vehicle id="29" depart="51.00">
        <route edges="18to2 2to6 6to10 10to14"/>
    </vehicle>
    <vehicle id="30" depart="51.50">
        <route edges="12to13 13to14 14to15 15to31"/>
    </vehicle>
    <vehicle id="31" depart="54.50">
        <route edges="21to4 4to8"/>
    </vehicle>
    <vehicle id="32" depart="58.00">
        <route edges="1to2 2to6 6to10"/>
    </vehicle>
    <vehicle id="33" depart="59.00">
        <route edges="0to4 4to5 5to9 9to10 10to11"/>
    </vehicle>
    <vehicle id="34" depart="59.50">
        <route edges="16to0 0to1 1to5 5to6 6to10 10to14"/>
    </vehicle>
    <vehicle id="40" depart="70.50">
        <route edges="20to0 0to4"/>
    </vehicle>
    <vehicle id="41" depart="70.50">
        <route edges="16to0 0to1 1to5 5to6 6to10 10to11 11to15"/>
    </vehicle>
    <vehicle id="45" depart="74.00">
        <route edges="4to8 8to9 9to13 13to25"/>
    </vehicle>
    <vehicle id="46" depart="75.00">
        <route edges="0to1 1to5 5to6 6to10 10to11 11to15 15to31"/>
    </vehicle>
    <vehicle id="49" depart="77.50">
        <route edges="3to7 7to11 11to15"/>
    </vehicle>
    <vehicle id="50" depart="80.50">
        <route edges="8to9 9to13 13to25"/>
    </vehicle>
    <vehicle id="51" depart="81.00">
        <route edges="4to8 8to9 9to13 13to14 14to15 15to31"/>
    </vehicle>
    <vehicle id="53" depart="82.50">
        <route edges="20to0 0to4 4to5 5to9 9to10 10to11 11to15"/>
    </vehicle>
    <vehicle id="55" depart="85.00">
        <route edges="5to6 6to10 10to11 11to15"/>
    </vehicle>
    <vehicle id="59" depart="89.00">
        <route edges="0to1 1to5 5to9"/>
    </vehicle>
    <vehicle id="61" depart="95.00">
        <route edges="4to5 5to6 6to7 7to29"/>
    </vehicle>
    <vehicle id="62" depart="95.50">
        <route edges="20to0 0to1 1to5"/>
    </vehicle>
    <vehicle id="63" depart="95.50">
        <route edges="18to2 2to6 6to10"/>
    </vehicle>
    <vehicle id="66" depart="101.00">
        <route edges="14to15 15to27"/>
    </vehicle>
    <vehicle id="67" depart="103.50">
        <route edges="7to11 11to15 15to31"/>
    </vehicle>
    <vehicle id="69" depart="104.00">
        <route edges="8to9 9to13 13to14 14to15 15to27"/>
    </vehicle>
    <vehicle id="71" depart="105.00">
        <route edges="3to7 7to11 11to15"/>
    </vehicle>
    <vehicle id="72" depart="105.00">
        <route edges="9to10 10to11 11to15"/>
    </vehicle>
    <vehicle id="73" depart="110.00">
        <route edges="9to10 10to14 14to15"/>
    </vehicle>
    <vehicle id="76" depart="111.00">
        <route edges="0to1 1to5 5to6 6to10 10to11 11to15"/>
    </vehicle>
    <vehicle id="79" depart="114.50">
        <route edges="16to0 0to1 1to2 2to3 3to7"/>
    </vehicle>
    <vehicle id="80" depart="116.00">
        <route edges="1to2 2to6 6to10 10to11"/>
    </vehicle>
    <vehicle id="86" depart="122.50">
        <route edges="4to5 5to9 9to13 13to25"/>
    </vehicle>
    <vehicle id="89" depart="127.50">
        <route edges="4to8 8to9 9to10 10to14"/>
    </vehicle>
    <vehicle id="90" depart="127.50">
        <route edges="12to13 13to25"/>
    </vehicle>
    <vehicle id="91" depart="128.50">
        <route edges="0to1 1to5 5to6 6to10 10to14 14to15"/>
    </vehicle>
    <vehicle id="92" depart="129.00">
        <route edges="0to4 4to5 5to9 9to10 10to14 14to26"/>
    </vehicle>
    <vehicle id="96" depart="130.00">
        <route edges="2to6 6to7 7to11 11to15 15to27"/>
    </vehicle>
    <vehicle id="101" depart="138.00">
        <route edges="20to0 0to4 4to5 5to9 9to13 13to25"/>
    </vehicle>
    <vehicle id="104" depart="151.00">
        <route edges="17to1 1to5 5to9 9to10"/>
    </vehicle>
    <vehicle id="106" depart="152.00">
        <route edges="17to1 1to5 5to9 9to13"/>
    </vehicle>
    <vehicle id="108" depart="156.00">
        <route edges="1to2 2to6 6to10 10to14 14to26"/>
    </vehicle>
    <vehicle id="109" depart="156.50">
        <route edges="17to1 1to5 5to6"/>
    </vehicle>
    <vehicle id="110" depart="158.00">
        <route edges="0to1 1to5 5to6 6to7 7to11"/>
    </vehicle>
    <vehicle id="114" depart="165.00">
        <route edges="5to6 6to7 7to11"/>
    </vehicle>
    <vehicle id="118" depart="168.00">
        <route edges="16to0 0to1 1to5 5to6 6to10"/>
    </vehicle>
    <vehicle id="123" depart="182.00">
        <route edges="19to3 3to7 7to11 11to15"/>
    </vehicle>
    <vehicle id="124" depart="183.00">
        <route edges="8to9 9to13 13to14 14to15"/>
    </vehicle>
    <vehicle id="128" depart="187.50">
        <route edges="16to0 0to1 1to5 5to6 6to10 10to11 11to30"/>
    </vehicle>
    <vehicle id="129" depart="188.00">
        <route edges="8to9 9to10"/>
    </vehicle>
    <vehicle id="132" depart="196.00">
        <route edges="20to0 0to4 4to5 5to9 9to10 10to11"/>
    </vehicle>
    <vehicle id="135" depart="198.50">
        <route edges="1to2 2to6 6to7 7to29"/>
    </vehicle>
    <vehicle id="138" depart="203.00">
        <route edges="10to14 14to26"/>
    </vehicle>
    <vehicle id="143" depart="208.00">
        <route edges="9to10 10to14 14to15"/>
    </vehicle>
    <vehicle id="148" depart="216.00">
        <route edges="0to4 4to5 5to9 9to13"/>
    </vehicle>
    <vehicle id="150" depart="216.00">
        <route edges="23to12 12to13 13to14 14to15 15to27"/>
    </vehicle>
    <vehicle id="157" depart="221.50">
        <route edges="4to8 8to12 12to13"/>
    </vehicle>
    <vehicle id="158" depart="223.00">
        <route edges="20to0 0to4 4to8 8to12 12to24"/>
    </vehicle>
    <vehicle id="162" depart="227.00">
        <route edges="16to0 0to1 1to5 5to9 9to10"/>
    </vehicle>
    <vehicle id="166" depart="232.50">
        <route edges="0to4 4to5 5to9 9to10 10to14 14to15"/>
    </vehicle>
    <vehicle id="173" depart="242.00">
        <route edges="9to13"/>
    </vehicle>
    <vehicle id="178" depart="249.50">
        <route edges="0to1 1to5 5to9 9to13 13to14"/>
    </vehicle>
    <vehicle id="179" depart="249.50">
        <route edges="11to15 15to31"/>
    </vehicle>
    <vehicle id="181" depart="250.00">
        <route edges="20to0 0to4 4to5 5to9 9to10 10to14 14to26"/>
    </vehicle>
    <vehicle id="185" depart="253.00">
        <route edges="4to5 5to9 9to13 13to25"/>
    </vehicle>
    <vehicle id="188" depart="257.00">
        <route edges="1to5 5to6 6to10 10to14"/>
    </vehicle>
    <vehicle id="190" depart="258.50">
        <route edges="8to12 12to13 13to14 14to15"/>
    </vehicle>
    <vehicle id="191" depart="258.50">
        <route edges="11to15"/>
    </vehicle>
    <vehicle id="193" depart="262.50">
        <route edges="4to8 8to9 9to13 13to14 14to15 15to27"/>
    </vehicle>
    <vehicle id="195" depart="266.00">
        <route edges="22to8 8to12 12to13 13to14 14to15 15to31"/>
    </vehicle>
    <vehicle id="196" depart="270.00">
        <route edges="6to10 10to14"/>
    </vehicle>
    <vehicle id="200" depart="271.50">
        <route edges="1to5 5to6 6to7 7to11"/>
    </vehicle>
    <vehicle id="202" depart="274.00">
        <route edges="18to2 2to6 6to10 10to14 14to15"/>
    </vehicle>
    <vehicle id="203" depart="274.50">
        <route edges="16to0 0to1 1to5 5to9 9to10"/>
    </vehicle>
    <vehicle id="205" depart="278.50">
        <route edges="10to11"/>
    </vehicle>
    <vehicle id="206" depart="281.00">
        <route edges="1to5 5to9"/>
    </vehicle>
    <vehicle id="207" depart="283.50">
        <route edges="19to3 3to7 7to11 11to15"/>
    </vehicle>
    <vehicle id="208" depart="283.50">
        <route edges="0to4 4to5 5to9 9to10"/>
    </vehicle>
    <vehicle id="210" depart="284.50">
        <route edges="1to5 5to6 6to7 7to29"/>
    </vehicle>
    <vehicle id="211" depart="284.50">
        <route edges="9to10 10to14 14to15 15to31"/>
    </vehicle>
    <vehicle id="213" depart="285.50">
        <route edges="17to1 1to5 5to9 9to13 13to25"/>
    </vehicle>
    <vehicle id="218" depart="292.50">
        <route edges="16to0 0to4 4to8 8to12 12to24"/>
    </vehicle>
    <vehicle id="224" depart="306.00">
        <route edges="16to0 0to1 1to5 5to6 6to10"/>
    </vehicle>
    <vehicle id="225" depart="307.00">
        <route edges="8to9 9to13 13to14 14to26"/>
    </vehicle>
    <vehicle id="227" depart="311.50">
        <route edges="4to5 5to9 9to10 10to11"/>
    </vehicle>
    <vehicle id="230" depart="314.50">
        <route edges="1to2"/>
    </vehicle>
    <vehicle id="231" depart="315.50">
        <route edges="12to13 13to25"/>
    </vehicle>
    <vehicle id="235" depart="323.00">
        <route edges="0to4 4to5 5to9 9to10 10to11"/>
    </vehicle>
    <vehicle id="236" depart="323.00">
        <route edges="20to0 0to4 4to5 5to9 9to10 10to14 14to15 15to31"/>
    </vehicle>
    <vehicle id="237" depart="323.50">
        <route edges="2to6 6to7 7to11 11to15 15to31"/>
    </vehicle>
    <vehicle id="241" depart="332.50">
        <route edges="22to8 8to12 12to13 13to25"/>
    </vehicle>
    <vehicle id="243" depart="336.50">
        <route edges="0to4 4to8 8to12 12to13"/>
    </vehicle>
    <vehicle id="245" depart="338.00">
        <route edges="5to9 9to13 13to25"/>
    </vehicle>
    <vehicle id="247" depart="338.50">
        <route edges="1to5 5to6 6to10 10to11 11to15"/>
    </vehicle>
    <vehicle id="248" depart="339.00">
        <route edges="23to12 12to24"/>
    </vehicle>
    <vehicle id="250" depart="344.50">
        <route edges="19to3 3to7 7to11 11to15 15to27"/>
    </vehicle>
    <vehicle id="251" depart="345.00">
        <route edges="5to6 6to10 10to11 11to15 15to31"/>
    </vehicle>
    <vehicle id="252" depart="348.00">
        <route edges="20to0 0to4 4to5 5to9 9to10 10to11"/>
    </vehicle>
    <vehicle id="253" depart="353.50">
        <route edges="18to2 2to3 3to7 7to11 11to15 15to31"/>
    </vehicle>
    <vehicle id="255" depart="358.50">
        <route edges="17to1 1to2 2to6 6to7 7to11 11to15 15to27"/>
    </vehicle>
    <vehicle id="256" depart="359.50">
        <route edges="9to10 10to11 11to30"/>
    </vehicle>
    <vehicle id="258" depart="367.00">
        <route edges="4to8 8to9 9to13 13to14 14to26"/>
    </vehicle>
    <vehicle id="259" depart="370.00">
        <route edges="1to5 5to6 6to10 10to14"/>
    </vehicle>
    <vehicle id="260" depart="373.00">
        <route edges="1to5 5to6 6to10 10to11 11to15 15to27"/>
    </vehicle>
    <vehicle id="263" depart="382.50">
        <route edges="5to9 9to10 10to11"/>
    </vehicle>
    <vehicle id="267" depart="389.50">
        <route edges="3to7 7to11 11to15"/>
    </vehicle>
    <vehicle id="270" depart="399.50">
        <route edges="5to9 9to10 10to11"/>
    </vehicle>
    <vehicle id="272" depart="406.50">
        <route edges="20to0 0to1 1to2 2to3 3to28"/>
    </vehicle>
    <vehicle id="275" depart="410.00">
        <route edges="9to13 13to14 14to15"/>
    </vehicle>
    <vehicle id="276" depart="410.50">
        <route edges="9to13 13to14 14to15"/>
    </vehicle>
    <vehicle id="277" depart="412.00">
        <route edges="20to0 0to1 1to5"/>
    </vehicle>
    <vehicle id="281" depart="416.00">
        <route edges="0to4 4to5 5to9 9to10 10to14 14to26"/>
    </vehicle>
    <vehicle id="284" depart="421.00">
        <route edges="2to6 6to7 7to11 11to15 15to27"/>
    </vehicle>
    <vehicle id="289" depart="429.50">
        <route edges="22to8 8to9 9to10"/>
    </vehicle>
    <vehicle id="290" depart="430.00">
        <route edges="20to0 0to4 4to5 5to6 6to7"/>
    </vehicle>
    <vehicle id="293" depart="433.00">
        <route edges="0to4 4to5 5to6"/>
    </vehicle>
    <vehicle id="295" depart="435.50">
        <route edges="2to6 6to10 10to14 14to26"/>
    </vehicle>
    <vehicle id="296" depart="439.00">
        <route edges="8to9 9to13 13to14 14to15 15to27"/>
    </vehicle>
    <vehicle id="298" depart="441.00">
        <route edges="0to4 4to5"/>
    </vehicle>
    <vehicle id="299" depart="441.50">
        <route edges="18to2 2to6 6to10 10to14 14to15"/>
    </vehicle>
    <vehicle id="300" depart="443.00">
        <route edges="23to12 12to13 13to14 14to15 15to27"/>
    </vehicle>
    <vehicle id="301" depart="445.00">
        <route edges="16to0 0to1 1to5 5to6 6to7 7to29"/>
    </vehicle>
    <vehicle id="306" depart="448.50">
        <route edges="4to5 5to9 9to10 10to11 11to15"/>
    </vehicle>
    <vehicle id="307" depart="450.50">
        <route edges="4to8 8to9 9to10 10to11"/>
    </vehicle>
    <vehicle id="309" depart="452.00">
        <route edges="18to2 2to3 3to7 7to11 11to15"/>
    </vehicle>
    <vehicle id="310" depart="453.00">
        <route edges="4to8 8to9 9to10"/>
    </vehicle>
    <vehicle id="314" depart="462.50">
        <route edges="17to1 1to5 5to9 9to10"/>
    </vehicle>
    <vehicle id="315" depart="464.50">
        <route edges="18to2 2to6 6to10"/>
    </vehicle>
    <vehicle id="322" depart="475.50">
        <route edges="2to6 6to7 7to11 11to15"/>
    </vehicle>
    <vehicle id="331" depart="486.00">
        <route edges="8to12 12to13"/>
    </vehicle>
    <vehicle id="333" depart="488.00">
        <route edges="20to0 0to4 4to5 5to6 6to10"/>
    </vehicle>
    <vehicle id="335" depart="492.00">
        <route edges="1to5 5to6 6to10 10to11 11to30"/>
    </vehicle>
    <vehicle id="338" depart="505.50">
        <route edges="21to4 4to8 8to9 9to13 13to14 14to26"/>
    </vehicle>
    <vehicle id="340" depart="506.50">
        <route edges="22to8 8to9 9to10 10to14"/>
    </vehicle>
    <vehicle id="341" depart="511.50">
        <route edges="10to11 11to30"/>
    </vehicle>
    <vehicle id="342" depart="512.00">
        <route edges="20to0 0to1 1to2 2to3"/>
    </vehicle>
    <vehicle id="346" depart="519.00">
        <route edges="1to5 5to6 6to10 10to11 11to15 15to27"/>
    </vehicle>
    <vehicle id="347" depart="519.00">
        <route edges="19to3 3to7 7to11 11to15 15to27"/>
    </vehicle>
    <vehicle id="349" depart="527.50">
        <route edges="18to2 2to6 6to10 10to14"/>
    </vehicle>
    <vehicle id="350" depart="529.50">
        <route edges="4to8 8to9 9to13 13to14 14to15"/>
    </vehicle>
    <vehicle id="358" depart="545.00">
        <route edges="1to5 5to6 6to10"/>
    </vehicle>
    <vehicle id="361" depart="549.50">
        <route edges="2to6 6to10 10to11"/>
    </vehicle>
    <vehicle id="366" depart="552.50">
        <route edges="19to3 3to28"/>
    </vehicle>
    <vehicle id="368" depart="561.00">
        <route edges="22to8 8to12 12to13 13to14 14to26"/>
    </vehicle>
    <vehicle id="371" depart="566.50">
        <route edges="0to1 1to5 5to6 6to7 7to29"/>
    </vehicle>
    <vehicle id="372" depart="566.50">
        <route edges="0to4 4to5 5to9 9to10 10to14 14to15 15to27"/>
    </vehicle>
    <vehicle id="377" depart="570.00">
        <route edges="5to9 9to10 10to11 11to15"/>
    </vehicle>
    <vehicle id="379" depart="571.00">
        <route edges="3to7 7to11"/>
    </vehicle>
    <vehicle id="380" depart="573.00">
        <route edges="4to5 5to9 9to13"/>
    </vehicle>
    <vehicle id="381" depart="574.50">
        <route edges="21to4 4to8 8to9 9to10 10to11 11to30"/>
    </vehicle>
    <vehicle id="385" depart="580.00">
        <route edges="8to12 12to13 13to14 14to15"/>
    </vehicle>
    <vehicle id="386" depart="582.00">
        <route edges="17to1 1to2 2to6 6to7 7to11 11to15 15to27"/>
    </vehicle>
    <vehicle id="388" depart="583.00">
        <route edges="0to4 4to5"/>
    </vehicle>
    <vehicle id="389" depart="587.50">
        <route edges="17to1 1to2 2to6 6to7 7to29"/>
    </vehicle>
    <vehicle id="390" depart="589.00">
        <route edges="0to4 4to5"/>
    </vehicle>
    <vehicle id="391" depart="589.50">
        <route edges="16to0 0to1 1to5 5to6 6to7"/>
    </vehicle>
    <vehicle id="392" depart="590.00">
        <route edges="1to5 5to6 6to10 10to11 11to15 15to27"/>
    </vehicle>
    <vehicle id="393" depart="590.00">
        <route edges="20to0 0to4 4to5 5to9 9to10"/>
    </vehicle>
    <vehicle id="394" depart="591.00">
        <route edges="18to2 2to3 3to7 7to11 11to30"/>
    </vehicle>
    <vehicle id="395" depart="595.50">
        <route edges="4to8 8to9 9to13 13to14 14to26"/>
    </vehicle>
    <vehicle id="397" depart="597.00">
        <route edges="10to11 11to15 15to31"/>
    </vehicle>
    <vehicle id="398" depart="598.00">
        <route edges="1to5 5to9 9to13"/>
    </vehicle>
    <vehicle id="399" depart="598.00">
        <route edges="12to13 13to25"/>
    </vehicle>
</routes>
