<?xml version="1.0" encoding="UTF-8"?>

<!-- generated on 2024-12-02 18:11:00.996222 by randomTrips.py UNKNOWN
<configuration>
    <net-file value="4x4.net.xml"/>
    <route-file value="4x4.rou.xml"/>
    <end value="600.0"/>
    <period value="1.5"/>
    <random-depart value="True"/>
</configuration>
-->

<routes xmlns:xsi="http://www.w3.org/2001/XMLSchema-instance" xsi:noNamespaceSchemaLocation="http://sumo.dlr.de/xsd/routes_file.xsd">
    <trip id="0" depart="0.50" from="14to15" to="2to6"/>
    <trip id="1" depart="0.50" from="12to13" to="15to31"/>
    <trip id="2" depart="2.50" from="4to8" to="1to5"/>
    <trip id="3" depart="3.50" from="0to4" to="13to25"/>
    <trip id="4" depart="3.50" from="17to1" to="7to29"/>
    <trip id="5" depart="5.50" from="10to11" to="12to24"/>
    <trip id="6" depart="6.50" from="16to0" to="6to7"/>
    <trip id="7" depart="7.00" from="2to3" to="6to7"/>
    <trip id="8" depart="8.50" from="13to14" to="10to14"/>
    <trip id="9" depart="9.50" from="14to15" to="11to15"/>
    <trip id="10" depart="11.50" from="16to0" to="11to15"/>
    <trip id="11" depart="12.00" from="0to4" to="6to7"/>
    <trip id="12" depart="14.00" from="2to6" to="7to11"/>
    <trip id="13" depart="15.50" from="8to9" to="1to2"/>
    <trip id="14" depart="21.50" from="20to0" to="13to25"/>
    <trip id="15" depart="25.50" from="1to2" to="13to14"/>
    <trip id="16" depart="26.50" from="23to12" to="1to2"/>
    <trip id="17" depart="27.00" from="2to6" to="8to12"/>
    <trip id="18" depart="27.50" from="5to6" to="3to7"/>
    <trip id="19" depart="29.00" from="0to1" to="12to24"/>
    <trip id="20" depart="31.50" from="4to5" to="7to29"/>
    <trip id="21" depart="32.00" from="2to3" to="0to1"/>
    <trip id="22" depart="36.00" from="5to9" to="7to11"/>
    <trip id="23" depart="39.50" from="2to3" to="6to10"/>
    <trip id="24" depart="40.00" from="12to13" to="2to3"/>
    <trip id="25" depart="40.50" from="20to0" to="13to14"/>
    <trip id="26" depart="42.50" from="9to13" to="15to31"/>
    <trip id="27" depart="46.50" from="6to7" to="9to13"/>
    <trip id="28" depart="48.00" from="21to4" to="15to31"/>
    <trip id="29" depart="51.00" from="18to2" to="10to14"/>
    <trip id="30" depart="51.50" from="12to13" to="15to31"/>
    <trip id="31" depart="54.50" from="21to4" to="4to8"/>
    <trip id="32" depart="58.00" from="1to2" to="6to10"/>
    <trip id="33" depart="59.00" from="0to4" to="10to11"/>
    <trip id="34" depart="59.50" from="16to0" to="10to14"/>
    <trip id="35" depart="60.00" from="5to9" to="7to29"/>
    <trip id="36" depart="63.50" from="6to7" to="0to1"/>
    <trip id="37" depart="65.00" from="7to11" to="1to2"/>
    <trip id="38" depart="69.00" from="0to4" to="2to3"/>
    <trip id="39" depart="70.50" from="2to6" to="1to5"/>
    <trip id="40" depart="70.50" from="20to0" to="0to4"/>
    <trip id="41" depart="70.50" from="16to0" to="11to15"/>
    <trip id="42" depart="71.00" from="17to1" to="8to12"/>
    <trip id="43" depart="71.50" from="21to4" to="0to1"/>
    <trip id="44" depart="73.50" from="3to7" to="6to7"/>
    <trip id="45" depart="74.00" from="4to8" to="13to25"/>
    <trip id="46" depart="75.00" from="0to1" to="15to31"/>
    <trip id="47" depart="75.00" from="14to15" to="7to11"/>
    <trip id="48" depart="77.00" from="10to14" to="9to10"/>
    <trip id="49" depart="77.50" from="3to7" to="11to15"/>
    <trip id="50" depart="80.50" from="8to9" to="13to25"/>
    <trip id="51" depart="81.00" from="4to8" to="15to31"/>
    <trip id="52" depart="82.00" from="21to4" to="1to5"/>
    <trip id="53" depart="82.50" from="20to0" to="11to15"/>
    <trip id="54" depart="83.00" from="13to14" to="3to7"/>
    <trip id="55" depart="85.00" from="5to6" to="11to15"/>
    <trip id="56" depart="86.00" from="10to11" to="6to10"/>
    <trip id="57" depart="87.50" from="7to11" to="14to15"/>
    <trip id="58" depart="87.50" from="6to10" to="13to14"/>
    <trip id="59" depart="89.00" from="0to1" to="5to9"/>
    <trip id="60" depart="94.50" from="6to7" to="3to28"/>
    <trip id="61" depart="95.00" from="4to5" to="7to29"/>
    <trip id="62" depart="95.50" from="20to0" to="1to5"/>
    <trip id="63" depart="95.50" from="18to2" to="6to10"/>
    <trip id="64" depart="96.50" from="1to2" to="8to9"/>
    <trip id="65" depart="100.00" from="7to11" to="9to13"/>
    <trip id="66" depart="101.00" from="14to15" to="15to27"/>
    <trip id="67" depart="103.50" from="7to11" to="15to31"/>
    <trip id="68" depart="104.00" from="18to2" to="1to5"/>
    <trip id="69" depart="104.00" from="8to9" to="15to27"/>
    <trip id="70" depart="104.00" from="9to13" to="6to7"/>
    <trip id="71" depart="105.00" from="3to7" to="11to15"/>
    <trip id="72" depart="105.00" from="9to10" to="11to15"/>
    <trip id="73" depart="110.00" from="9to10" to="14to15"/>
    <trip id="74" depart="110.50" from="10to14" to="7to29"/>
    <trip id="75" depart="111.00" from="10to14" to="8to9"/>
    <trip id="76" depart="111.00" from="0to1" to="11to15"/>
    <trip id="77" depart="114.50" from="7to11" to="9to13"/>
    <trip id="78" depart="114.50" from="10to11" to="6to7"/>
    <trip id="79" depart="114.50" from="16to0" to="3to7"/>
    <trip id="80" depart="116.00" from="1to2" to="10to11"/>
    <trip id="81" depart="117.50" from="18to2" to="4to8"/>
    <trip id="82" depart="118.00" from="23to12" to="9to10"/>
    <trip id="83" depart="118.50" from="3to7" to="8to12"/>
    <trip id="84" depart="118.50" from="21to4" to="2to6"/>
    <trip id="85" depart="122.00" from="2to6" to="12to24"/>
    <trip id="86" depart="122.50" from="4to5" to="13to25"/>
    <trip id="87" depart="123.50" from="14to15" to="10to11"/>
    <trip id="88" depart="124.50" from="9to13" to="6to10"/>
    <trip id="89" depart="127.50" from="4to8" to="10to14"/>
    <trip id="90" depart="127.50" from="12to13" to="13to25"/>
    <trip id="91" depart="128.50" from="0to1" to="14to15"/>
    <trip id="92" depart="129.00" from="0to4" to="14to26"/>
    <trip id="93" depart="129.00" from="1to5" to="12to24"/>
    <trip id="94" depart="129.00" from="1to5" to="4to8"/>
    <trip id="95" depart="130.00" from="12to13" to="11to30"/>
    <trip id="96" depart="130.00" from="2to6" to="15to27"/>
    <trip id="97" depart="133.00" from="4to5" to="1to5"/>
    <trip id="98" depart="135.00" from="2to3" to="12to24"/>
    <trip id="99" depart="136.50" from="3to7" to="1to2"/>
    <trip id="100" depart="137.00" from="4to5" to="8to12"/>
    <trip id="101" depart="138.00" from="20to0" to="13to25"/>
    <trip id="102" depart="141.50" from="23to12" to="10to11"/>
    <trip id="103" depart="143.00" from="9to10" to="9to13"/>
    <trip id="104" depart="151.00" from="17to1" to="9to10"/>
    <trip id="105" depart="152.00" from="4to8" to="1to2"/>
    <trip id="106" depart="152.00" from="17to1" to="9to13"/>
    <trip id="107" depart="154.00" from="7to11" to="10to14"/>
    <trip id="108" depart="156.00" from="1to2" to="14to26"/>
    <trip id="109" depart="156.50" from="17to1" to="5to6"/>
    <trip id="110" depart="158.00" from="0to1" to="7to11"/>
    <trip id="111" depart="158.00" from="1to2" to="0to1"/>
    <trip id="112" depart="161.00" from="7to11" to="6to10"/>
    <trip id="113" depart="162.00" from="9to13" to="8to9"/>
    <trip id="114" depart="165.00" from="5to6" to="7to11"/>
    <trip id="115" depart="166.50" from="8to12" to="6to10"/>
    <trip id="116" depart="167.00" from="14to15" to="6to7"/>
    <trip id="117" depart="167.50" from="14to15" to="12to13"/>
    <trip id="118" depart="168.00" from="16to0" to="6to10"/>
    <trip id="119" depart="169.00" from="5to9" to="4to8"/>
    <trip id="120" depart="169.50" from="11to15" to="10to14"/>
    <trip id="121" depart="171.50" from="3to7" to="0to4"/>
    <trip id="122" depart="180.00" from="6to10" to="0to4"/>
    <trip id="123" depart="182.00" from="19to3" to="11to15"/>
    <trip id="124" depart="183.00" from="8to9" to="14to15"/>
    <trip id="125" depart="183.50" from="1to5" to="12to13"/>
    <trip id="126" depart="186.50" from="6to10" to="8to12"/>
    <trip id="127" depart="186.50" from="19to3" to="2to3"/>
    <trip id="128" depart="187.50" from="16to0" to="11to30"/>
    <trip id="129" depart="188.00" from="8to9" to="9to10"/>
    <trip id="130" depart="189.00" from="9to10" to="13to25"/>
    <trip id="131" depart="196.00" from="7to11" to="6to7"/>
    <trip id="132" depart="196.00" from="20to0" to="10to11"/>
    <trip id="133" depart="197.00" from="5to9" to="12to24"/>
    <trip id="134" depart="197.50" from="4to5" to="4to8"/>
    <trip id="135" depart="198.50" from="1to2" to="7to29"/>
    <trip id="136" depart="199.50" from="23to12" to="10to11"/>
    <trip id="137" depart="201.00" from="1to2" to="13to14"/>
    <trip id="138" depart="203.00" from="10to14" to="14to26"/>
    <trip id="139" depart="203.00" from="5to6" to="13to14"/>
    <trip id="140" depart="203.00" from="1to2" to="4to5"/>
    <trip id="141" depart="204.00" from="19to3" to="4to8"/>
    <trip id="142" depart="205.50" from="21to4" to="3to7"/>
    <trip id="143" depart="208.00" from="9to10" to="14to15"/>
    <trip id="144" depart="209.50" from="2to6" to="4to5"/>
    <trip id="145" depart="214.50" from="3to7" to="1to2"/>
    <trip id="146" depart="215.50" from="4to8" to="4to5"/>
    <trip id="147" depart="215.50" from="10to14" to="0to4"/>
    <trip id="148" depart="216.00" from="0to4" to="9to13"/>
    <trip id="149" depart="216.00" from="10to14" to="12to24"/>
    <trip id="150" depart="216.00" from="23to12" to="15to27"/>
    <trip id="151" depart="217.50" from="19to3" to="9to10"/>
    <trip id="152" depart="218.00" from="4to8" to="2to6"/>
    <trip id="153" depart="218.50" from="2to3" to="5to9"/>
    <trip id="154" depart="219.00" from="8to12" to="4to5"/>
    <trip id="155" depart="219.50" from="6to7" to="3to7"/>
    <trip id="156" depart="220.00" from="9to10" to="13to14"/>
    <trip id="157" depart="221.50" from="4to8" to="12to13"/>
    <trip id="158" depart="223.00" from="20to0" to="12to24"/>
    <trip id="159" depart="224.50" from="19to3" to="9to13"/>
    <trip id="160" depart="225.50" from="19to3" to="8to12"/>
    <trip id="161" depart="226.00" from="3to7" to="0to4"/>
    <trip id="162" depart="227.00" from="16to0" to="9to10"/>
    <trip id="163" depart="228.00" from="9to10" to="7to11"/>
    <trip id="164" depart="228.00" from="10to11" to="12to13"/>
    <trip id="165" depart="231.50" from="3to7" to="9to13"/>
    <trip id="166" depart="232.50" from="0to4" to="14to15"/>
    <trip id="167" depart="233.00" from="9to13" to="6to7"/>
    <trip id="168" depart="234.00" from="13to14" to="7to11"/>
    <trip id="169" depart="235.50" from="23to12" to="3to28"/>
    <trip id="170" depart="236.50" from="6to7" to="12to24"/>
    <trip id="171" depart="238.50" from="5to9" to="6to7"/>
    <trip id="172" depart="240.50" from="2to6" to="13to14"/>
    <trip id="173" depart="242.00" from="9to13" to="9to13"/>
    <trip id="174" depart="244.50" from="23to12" to="6to7"/>
    <trip id="175" depart="244.50" from="10to14" to="7to29"/>
    <trip id="176" depart="248.00" from="11to15" to="14to26"/>
    <trip id="177" depart="249.50" from="6to10" to="3to28"/>
    <trip id="178" depart="249.50" from="0to1" to="13to14"/>
    <trip id="179" depart="249.50" from="11to15" to="15to31"/>
    <trip id="180" depart="250.00" from="10to14" to="10to11"/>
    <trip id="181" depart="250.00" from="20to0" to="14to26"/>
    <trip id="182" depart="251.00" from="2to3" to="1to2"/>
    <trip id="183" depart="252.00" from="14to15" to="3to7"/>
    <trip id="184" depart="252.00" from="5to6" to="8to9"/>
    <trip id="185" depart="253.00" from="4to5" to="13to25"/>
    <trip id="186" depart="253.50" from="3to7" to="0to1"/>
    <trip id="187" depart="254.50" from="9to13" to="7to29"/>
    <trip id="188" depart="257.00" from="1to5" to="10to14"/>
    <trip id="189" depart="257.00" from="4to8" to="1to2"/>
    <trip id="190" depart="258.50" from="8to12" to="14to15"/>
    <trip id="191" depart="258.50" from="11to15" to="11to15"/>
    <trip id="192" depart="260.50" from="2to6" to="3to28"/>
    <trip id="193" depart="262.50" from="4to8" to="15to27"/>
    <trip id="194" depart="264.00" from="2to6" to="13to25"/>
    <trip id="195" depart="266.00" from="22to8" to="15to31"/>
    <trip id="196" depart="270.00" from="6to10" to="10to14"/>
    <trip id="197" depart="271.00" from="3to7" to="8to12"/>
    <trip id="198" depart="271.50" from="23to12" to="7to29"/>
    <trip id="199" depart="271.50" from="1to5" to="8to12"/>
    <trip id="200" depart="271.50" from="1to5" to="7to11"/>
    <trip id="201" depart="273.50" from="1to2" to="5to9"/>
    <trip id="202" depart="274.00" from="18to2" to="14to15"/>
    <trip id="203" depart="274.50" from="16to0" to="9to10"/>
    <trip id="204" depart="278.00" from="4to5" to="1to5"/>
    <trip id="205" depart="278.50" from="10to11" to="10to11"/>
    <trip id="206" depart="281.00" from="1to5" to="5to9"/>
    <trip id="207" depart="283.50" from="19to3" to="11to15"/>
    <trip id="208" depart="283.50" from="0to4" to="9to10"/>
    <trip id="209" depart="284.00" from="23to12" to="4to8"/>
    <trip id="210" depart="284.50" from="1to5" to="7to29"/>
    <trip id="211" depart="284.50" from="9to10" to="15to31"/>
    <trip id="212" depart="285.50" from="8to9" to="0to4"/>
    <trip id="213" depart="285.50" from="17to1" to="13to25"/>
    <trip id="214" depart="286.00" from="10to14" to="2to3"/>
    <trip id="215" depart="289.00" from="11to15" to="1to5"/>
    <trip id="216" depart="291.50" from="7to11" to="14to26"/>
    <trip id="217" depart="292.00" from="23to12" to="10to14"/>
    <trip id="218" depart="292.50" from="16to0" to="12to24"/>
    <trip id="219" depart="293.50" from="1to5" to="2to6"/>
    <trip id="220" depart="300.00" from="5to9" to="3to7"/>
    <trip id="221" depart="300.50" from="4to5" to="2to6"/>
    <trip id="222" depart="303.00" from="2to6" to="4to8"/>
    <trip id="223" depart="305.50" from="4to8" to="0to1"/>
    <trip id="224" depart="306.00" from="16to0" to="6to10"/>
    <trip id="225" depart="307.00" from="8to9" to="14to26"/>
    <trip id="226" depart="309.50" from="12to13" to="11to15"/>
    <trip id="227" depart="311.50" from="4to5" to="10to11"/>
    <trip id="228" depart="312.50" from="5to6" to="9to13"/>
    <trip id="229" depart="313.50" from="10to11" to="2to3"/>
    <trip id="230" depart="314.50" from="1to2" to="1to2"/>
    <trip id="231" depart="315.50" from="12to13" to="13to25"/>
    <trip id="232" depart="317.00" from="18to2" to="9to10"/>
    <trip id="233" depart="321.00" from="2to6" to="8to12"/>
    <trip id="234" depart="322.50" from="11to15" to="6to10"/>
    <trip id="235" depart="323.00" from="0to4" to="10to11"/>
    <trip id="236" depart="323.00" from="20to0" to="15to31"/>
    <trip id="237" depart="323.50" from="2to6" to="15to31"/>
    <trip id="238" depart="324.50" from="13to14" to="2to3"/>
    <trip id="239" depart="327.50" from="19to3" to="10to14"/>
    <trip id="240" depart="329.00" from="4to5" to="3to28"/>
    <trip id="241" depart="332.50" from="22to8" to="13to25"/>
    <trip id="242" depart="335.00" from="14to15" to="9to13"/>
    <trip id="243" depart="336.50" from="0to4" to="12to13"/>
    <trip id="244" depart="338.00" from="9to10" to="6to10"/>
    <trip id="245" depart="338.00" from="5to9" to="13to25"/>
    <trip id="246" depart="338.50" from="10to14" to="1to5"/>
    <trip id="247" depart="338.50" from="1to5" to="11to15"/>
    <trip id="248" depart="339.00" from="23to12" to="12to24"/>
    <trip id="249" depart="344.00" from="23to12" to="4to8"/>
    <trip id="250" depart="344.50" from="19to3" to="15to27"/>
    <trip id="251" depart="345.00" from="5to6" to="15to31"/>
    <trip id="252" depart="348.00" from="20to0" to="10to11"/>
    <trip id="253" depart="353.50" from="18to2" to="15to31"/>
    <trip id="254" depart="357.00" from="1to2" to="4to5"/>
    <trip id="255" depart="358.50" from="17to1" to="15to27"/>
    <trip id="256" depart="359.50" from="9to10" to="11to30"/>
    <trip id="257" depart="360.50" from="9to10" to="1to2"/>
    <trip id="258" depart="367.00" from="4to8" to="14to26"/>
    <trip id="259" depart="370.00" from="1to5" to="10to14"/>
    <trip id="260" depart="373.00" from="1to5" to="15to27"/>
    <trip id="261" depart="379.00" from="10to11" to="7to29"/>
    <trip id="262" depart="379.50" from="5to6" to="12to24"/>
    <trip id="263" depart="382.50" from="5to9" to="10to11"/>
    <trip id="264" depart="388.00" from="3to7" to="2to3"/>
    <trip id="265" depart="388.00" from="13to14" to="6to10"/>
    <trip id="266" depart="389.50" from="19to3" to="9to10"/>
    <trip id="267" depart="389.50" from="3to7" to="11to15"/>
    <trip id="268" depart="392.00" from="10to14" to="13to14"/>
    <trip id="269" depart="394.00" from="12to13" to="11to15"/>
    <trip id="270" depart="399.50" from="5to9" to="10to11"/>
    <trip id="271" depart="405.00" from="9to10" to="4to5"/>
    <trip id="272" depart="406.50" from="20to0" to="3to28"/>
    <trip id="273" depart="408.00" from="2to3" to="4to8"/>
    <trip id="274" depart="409.50" from="8to12" to="4to5"/>
    <trip id="275" depart="410.00" from="9to13" to="14to15"/>
    <trip id="276" depart="410.50" from="9to13" to="14to15"/>
    <trip id="277" depart="412.00" from="20to0" to="1to5"/>
    <trip id="278" depart="412.50" from="3to7" to="6to7"/>
    <trip id="279" depart="415.50" from="2to3" to="14to26"/>
    <trip id="280" depart="416.00" from="10to11" to="1to2"/>
    <trip id="281" depart="416.00" from="0to4" to="14to26"/>
    <trip id="282" depart="416.50" from="17to1" to="4to5"/>
    <trip id="283" depart="418.00" from="9to13" to="10to11"/>
    <trip id="284" depart="421.00" from="2to6" to="15to27"/>
    <trip id="285" depart="422.50" from="2to3" to="9to10"/>
    <trip id="286" depart="424.50" from="5to6" to="0to4"/>
    <trip id="287" depart="424.50" from="8to9" to="3to28"/>
    <trip id="288" depart="429.50" from="13to14" to="3to7"/>
    <trip id="289" depart="429.50" from="22to8" to="9to10"/>
    <trip id="290" depart="430.00" from="20to0" to="6to7"/>
    <trip id="291" depart="432.00" from="6to7" to="9to13"/>
    <trip id="292" depart="432.50" from="10to11" to="4to5"/>
    <trip id="293" depart="433.00" from="0to4" to="5to6"/>
    <trip id="294" depart="435.00" from="9to13" to="2to3"/>
    <trip id="295" depart="435.50" from="2to6" to="14to26"/>
    <trip id="296" depart="439.00" from="8to9" to="15to27"/>
    <trip id="297" depart="440.50" from="5to9" to="4to8"/>
    <trip id="298" depart="441.00" from="0to4" to="4to5"/>
    <trip id="299" depart="441.50" from="18to2" to="14to15"/>
    <trip id="300" depart="443.00" from="23to12" to="15to27"/>
    <trip id="301" depart="445.00" from="16to0" to="7to29"/>
    <trip id="302" depart="446.50" from="9to10" to="3to7"/>
    <trip id="303" depart="446.50" from="11to15" to="10to11"/>
    <trip id="304" depart="446.50" from="4to5" to="8to9"/>
    <trip id="305" depart="448.00" from="17to1" to="4to5"/>
    <trip id="306" depart="448.50" from="4to5" to="11to15"/>
    <trip id="307" depart="450.50" from="4to8" to="10to11"/>
    <trip id="308" depart="451.00" from="23to12" to="4to5"/>
    <trip id="309" depart="452.00" from="18to2" to="11to15"/>
    <trip id="310" depart="453.00" from="4to8" to="9to10"/>
    <trip id="311" depart="458.50" from="9to13" to="8to9"/>
    <trip id="312" depart="459.00" from="10to11" to="4to8"/>
    <trip id="313" depart="460.50" from="22to8" to="0to1"/>
    <trip id="314" depart="462.50" from="17to1" to="9to10"/>
    <trip id="315" depart="464.50" from="18to2" to="6to10"/>
    <trip id="316" depart="465.00" from="13to14" to="9to13"/>
    <trip id="317" depart="469.00" from="11to15" to="13to25"/>
    <trip id="318" depart="470.00" from="6to10" to="2to3"/>
    <trip id="319" depart="470.50" from="23to12" to="5to9"/>
    <trip id="320" depart="471.00" from="22to8" to="4to8"/>
    <trip id="321" depart="473.50" from="8to12" to="3to7"/>
    <trip id="322" depart="475.50" from="2to6" to="11to15"/>
    <trip id="323" depart="476.00" from="12to13" to="5to6"/>
    <trip id="324" depart="477.50" from="2to6" to="8to12"/>
    <trip id="325" depart="478.50" from="5to6" to="0to4"/>
    <trip id="326" depart="479.50" from="19to3" to="5to9"/>
    <trip id="327" depart="480.00" from="9to13" to="3to7"/>
    <trip id="328" depart="481.50" from="5to9" to="6to7"/>
    <trip id="329" depart="484.00" from="14to15" to="12to24"/>
    <trip id="330" depart="484.50" from="9to10" to="6to7"/>
    <trip id="331" depart="486.00" from="8to12" to="12to13"/>
    <trip id="332" depart="487.00" from="4to5" to="3to28"/>
    <trip id="333" depart="488.00" from="20to0" to="6to10"/>
    <trip id="334" depart="488.00" from="5to9" to="2to3"/>
    <trip id="335" depart="492.00" from="1to5" to="11to30"/>
    <trip id="336" depart="500.50" from="13to14" to="3to7"/>
    <trip id="337" depart="501.00" from="7to11" to="0to4"/>
    <trip id="338" depart="505.50" from="21to4" to="14to26"/>
    <trip id="339" depart="506.00" from="8to9" to="5to6"/>
    <trip id="340" depart="506.50" from="22to8" to="10to14"/>
    <trip id="341" depart="511.50" from="10to11" to="11to30"/>
    <trip id="342" depart="512.00" from="20to0" to="2to3"/>
    <trip id="343" depart="516.00" from="6to7" to="10to11"/>
    <trip id="344" depart="517.00" from="8to9" to="7to11"/>
    <trip id="345" depart="518.50" from="8to12" to="8to9"/>
    <trip id="346" depart="519.00" from="1to5" to="15to27"/>
    <trip id="347" depart="519.00" from="19to3" to="15to27"/>
    <trip id="348" depart="526.50" from="10to11" to="12to24"/>
    <trip id="349" depart="527.50" from="18to2" to="10to14"/>
    <trip id="350" depart="529.50" from="4to8" to="14to15"/>
    <trip id="351" depart="532.50" from="11to15" to="0to4"/>
    <trip id="352" depart="533.00" from="8to9" to="1to5"/>
    <trip id="353" depart="534.00" from="6to7" to="6to10"/>
    <trip id="354" depart="540.50" from="21to4" to="3to7"/>
    <trip id="355" depart="543.00" from="8to12" to="0to1"/>
    <trip id="356" depart="543.00" from="13to14" to="11to15"/>
    <trip id="357" depart="543.50" from="9to10" to="3to7"/>
    <trip id="358" depart="545.00" from="1to5" to="6to10"/>
    <trip id="359" depart="546.00" from="14to15" to="10to14"/>
    <trip id="360" depart="549.50" from="14to15" to="4to5"/>
    <trip id="361" depart="549.50" from="2to6" to="10to11"/>
    <trip id="362" depart="551.50" from="6to7" to="1to5"/>
    <trip id="363" depart="551.50" from="23to12" to="4to5"/>
    <trip id="364" depart="551.50" from="2to3" to="5to6"/>
    <trip id="365" depart="552.50" from="17to1" to="0to1"/>
    <trip id="366" depart="552.50" from="19to3" to="3to28"/>
    <trip id="367" depart="555.00" from="12to13" to="4to8"/>
    <trip id="368" depart="561.00" from="22to8" to="14to26"/>
    <trip id="369" depart="563.00" from="9to10" to="2to6"/>
    <trip id="370" depart="564.50" from="6to10" to="2to3"/>
    <trip id="371" depart="566.50" from="0to1" to="7to29"/>
    <trip id="372" depart="566.50" from="0to4" to="15to27"/>
    <trip id="373" depart="567.00" from="19to3" to="5to9"/>
    <trip id="374" depart="568.00" from="19to3" to="10to11"/>
    <trip id="375" depart="569.00" from="14to15" to="4to8"/>
    <trip id="376" depart="569.00" from="10to14" to="3to28"/>
    <trip id="377" depart="570.00" from="5to9" to="11to15"/>
    <trip id="378" depart="570.50" from="19to3" to="14to15"/>
    <trip id="379" depart="571.00" from="3to7" to="7to11"/>
    <trip id="380" depart="573.00" from="4to5" to="9to13"/>
    <trip id="381" depart="574.50" from="21to4" to="11to30"/>
    <trip id="382" depart="576.00" from="11to15" to="5to6"/>
    <trip id="383" depart="577.50" from="9to10" to="0to4"/>
    <trip id="384" depart="578.50" from="13to14" to="6to7"/>
    <trip id="385" depart="580.00" from="8to12" to="14to15"/>
    <trip id="386" depart="582.00" from="17to1" to="15to27"/>
    <trip id="387" depart="582.50" from="6to7" to="1to5"/>
    <trip id="388" depart="583.00" from="0to4" to="4to5"/>
    <trip id="389" depart="587.50" from="17to1" to="7to29"/>
    <trip id="390" depart="589.00" from="0to4" to="4to5"/>
    <trip id="391" depart="589.50" from="16to0" to="6to7"/>
    <trip id="392" depart="590.00" from="1to5" to="15to27"/>
    <trip id="393" depart="590.00" from="20to0" to="9to10"/>
    <trip id="394" depart="591.00" from="18to2" to="11to30"/>
    <trip id="395" depart="595.50" from="4to8" to="14to26"/>
    <trip id="396" depart="596.50" from="6to10" to="13to14"/>
    <trip id="397" depart="597.00" from="10to11" to="15to31"/>
    <trip id="398" depart="598.00" from="1to5" to="9to13"/>
    <trip id="399" depart="598.00" from="12to13" to="13to25"/>
</routes>
