<?xml version="1.0" encoding="UTF-8"?>

<!-- generated on 2024-12-05 19:02:49 by Eclipse SUMO netgenerate Version 1.21.0
<netgenerateConfiguration xmlns:xsi="http://www.w3.org/2001/XMLSchema-instance" xsi:noNamespaceSchemaLocation="http://sumo.dlr.de/xsd/netgenerateConfiguration.xsd">

    <grid_network>
        <grid value="true"/>
        <grid.number value="2"/>
        <grid.length value="150"/>
        <grid.attach-length value="250"/>
    </grid_network>

    <output>
        <output-file value="2x2.net.xml"/>
    </output>

    <building_defaults>
        <default.lanenumber value="2"/>
    </building_defaults>

    <tls_building>
        <tls.set value="A0,A1,B0,B1"/>
        <tls.layout value="alternateOneWay"/>
    </tls_building>

    <junctions>
        <no-turnarounds value="true"/>
    </junctions>

</netgenerateConfiguration>
-->

<net version="1.20" junctionCornerDetail="5" limitTurnSpeed="5.50" xmlns:xsi="http://www.w3.org/2001/XMLSchema-instance" xsi:noNamespaceSchemaLocation="http://sumo.dlr.de/xsd/net_file.xsd">

    <location netOffset="0.00,0.00" convBoundary="0.00,0.00,650.00,650.00" origBoundary="0.00,0.00,650.00,650.00" projParameter="!"/>

    <edge id=":A0_0" function="internal">
        <lane id=":A0_0_0" index="0" speed="6.51" length="9.03" shape="245.20,260.40 244.85,257.95 243.80,256.20 242.05,255.15 239.60,254.80"/>
    </edge>
    <edge id=":A0_1" function="internal">
        <lane id=":A0_1_0" index="0" speed="13.89" length="20.80" shape="245.20,260.40 245.20,239.60"/>
        <lane id=":A0_1_1" index="1" speed="13.89" length="20.80" shape="248.40,260.40 248.40,239.60"/>
    </edge>
    <edge id=":A0_3" function="internal">
        <lane id=":A0_3_0" index="0" speed="9.26" length="19.35" shape="248.40,260.40 249.15,255.15 251.40,251.40 255.15,249.15 260.40,248.40"/>
    </edge>
    <edge id=":A0_4" function="internal">
        <lane id=":A0_4_0" index="0" speed="6.51" length="9.03" shape="260.40,254.80 257.95,255.15 256.20,256.20 255.15,257.95 254.80,260.40"/>
    </edge>
    <edge id=":A0_5" function="internal">
        <lane id=":A0_5_0" index="0" speed="13.89" length="20.80" shape="260.40,254.80 239.60,254.80"/>
        <lane id=":A0_5_1" index="1" speed="13.89" length="20.80" shape="260.40,251.60 239.60,251.60"/>
    </edge>
    <edge id=":A0_7" function="internal">
        <lane id=":A0_7_0" index="0" speed="9.26" length="19.35" shape="260.40,251.60 255.15,250.85 251.40,248.60 249.15,244.85 248.40,239.60"/>
    </edge>
    <edge id=":A0_8" function="internal">
        <lane id=":A0_8_0" index="0" speed="6.51" length="9.03" shape="254.80,239.60 255.15,242.05 256.20,243.80 257.95,244.85 260.40,245.20"/>
    </edge>
    <edge id=":A0_9" function="internal">
        <lane id=":A0_9_0" index="0" speed="13.89" length="20.80" shape="254.80,239.60 254.80,260.40"/>
        <lane id=":A0_9_1" index="1" speed="13.89" length="20.80" shape="251.60,239.60 251.60,260.40"/>
    </edge>
    <edge id=":A0_11" function="internal">
        <lane id=":A0_11_0" index="0" speed="9.26" length="19.35" shape="251.60,239.60 250.85,244.85 248.60,248.60 244.85,250.85 239.60,251.60"/>
    </edge>
    <edge id=":A0_12" function="internal">
        <lane id=":A0_12_0" index="0" speed="6.51" length="9.03" shape="239.60,245.20 242.05,244.85 243.80,243.80 244.85,242.05 245.20,239.60"/>
    </edge>
    <edge id=":A0_13" function="internal">
        <lane id=":A0_13_0" index="0" speed="13.89" length="20.80" shape="239.60,245.20 260.40,245.20"/>
        <lane id=":A0_13_1" index="1" speed="13.89" length="20.80" shape="239.60,248.40 260.40,248.40"/>
    </edge>
    <edge id=":A0_15" function="internal">
        <lane id=":A0_15_0" index="0" speed="9.26" length="19.35" shape="239.60,248.40 244.85,249.15 248.60,251.40 250.85,255.15 251.60,260.40"/>
    </edge>
    <edge id=":A1_0" function="internal">
        <lane id=":A1_0_0" index="0" speed="6.51" length="9.03" shape="245.20,410.40 244.85,407.95 243.80,406.20 242.05,405.15 239.60,404.80"/>
    </edge>
    <edge id=":A1_1" function="internal">
        <lane id=":A1_1_0" index="0" speed="13.89" length="20.80" shape="245.20,410.40 245.20,389.60"/>
        <lane id=":A1_1_1" index="1" speed="13.89" length="20.80" shape="248.40,410.40 248.40,389.60"/>
    </edge>
    <edge id=":A1_3" function="internal">
        <lane id=":A1_3_0" index="0" speed="9.26" length="19.35" shape="248.40,410.40 249.15,405.15 251.40,401.40 255.15,399.15 260.40,398.40"/>
    </edge>
    <edge id=":A1_4" function="internal">
        <lane id=":A1_4_0" index="0" speed="6.51" length="9.03" shape="260.40,404.80 257.95,405.15 256.20,406.20 255.15,407.95 254.80,410.40"/>
    </edge>
    <edge id=":A1_5" function="internal">
        <lane id=":A1_5_0" index="0" speed="13.89" length="20.80" shape="260.40,404.80 239.60,404.80"/>
        <lane id=":A1_5_1" index="1" speed="13.89" length="20.80" shape="260.40,401.60 239.60,401.60"/>
    </edge>
    <edge id=":A1_7" function="internal">
        <lane id=":A1_7_0" index="0" speed="9.26" length="19.35" shape="260.40,401.60 255.15,400.85 251.40,398.60 249.15,394.85 248.40,389.60"/>
    </edge>
    <edge id=":A1_8" function="internal">
        <lane id=":A1_8_0" index="0" speed="6.51" length="9.03" shape="254.80,389.60 255.15,392.05 256.20,393.80 257.95,394.85 260.40,395.20"/>
    </edge>
    <edge id=":A1_9" function="internal">
        <lane id=":A1_9_0" index="0" speed="13.89" length="20.80" shape="254.80,389.60 254.80,410.40"/>
        <lane id=":A1_9_1" index="1" speed="13.89" length="20.80" shape="251.60,389.60 251.60,410.40"/>
    </edge>
    <edge id=":A1_11" function="internal">
        <lane id=":A1_11_0" index="0" speed="9.26" length="19.35" shape="251.60,389.60 250.85,394.85 248.60,398.60 244.85,400.85 239.60,401.60"/>
    </edge>
    <edge id=":A1_12" function="internal">
        <lane id=":A1_12_0" index="0" speed="6.51" length="9.03" shape="239.60,395.20 242.05,394.85 243.80,393.80 244.85,392.05 245.20,389.60"/>
    </edge>
    <edge id=":A1_13" function="internal">
        <lane id=":A1_13_0" index="0" speed="13.89" length="20.80" shape="239.60,395.20 260.40,395.20"/>
        <lane id=":A1_13_1" index="1" speed="13.89" length="20.80" shape="239.60,398.40 260.40,398.40"/>
    </edge>
    <edge id=":A1_15" function="internal">
        <lane id=":A1_15_0" index="0" speed="9.26" length="19.35" shape="239.60,398.40 244.85,399.15 248.60,401.40 250.85,405.15 251.60,410.40"/>
    </edge>
    <edge id=":B0_0" function="internal">
        <lane id=":B0_0_0" index="0" speed="6.51" length="9.03" shape="395.20,260.40 394.85,257.95 393.80,256.20 392.05,255.15 389.60,254.80"/>
    </edge>
    <edge id=":B0_1" function="internal">
        <lane id=":B0_1_0" index="0" speed="13.89" length="20.80" shape="395.20,260.40 395.20,239.60"/>
        <lane id=":B0_1_1" index="1" speed="13.89" length="20.80" shape="398.40,260.40 398.40,239.60"/>
    </edge>
    <edge id=":B0_3" function="internal">
        <lane id=":B0_3_0" index="0" speed="9.26" length="19.35" shape="398.40,260.40 399.15,255.15 401.40,251.40 405.15,249.15 410.40,248.40"/>
    </edge>
    <edge id=":B0_4" function="internal">
        <lane id=":B0_4_0" index="0" speed="6.51" length="9.03" shape="410.40,254.80 407.95,255.15 406.20,256.20 405.15,257.95 404.80,260.40"/>
    </edge>
    <edge id=":B0_5" function="internal">
        <lane id=":B0_5_0" index="0" speed="13.89" length="20.80" shape="410.40,254.80 389.60,254.80"/>
        <lane id=":B0_5_1" index="1" speed="13.89" length="20.80" shape="410.40,251.60 389.60,251.60"/>
    </edge>
    <edge id=":B0_7" function="internal">
        <lane id=":B0_7_0" index="0" speed="9.26" length="19.35" shape="410.40,251.60 405.15,250.85 401.40,248.60 399.15,244.85 398.40,239.60"/>
    </edge>
    <edge id=":B0_8" function="internal">
        <lane id=":B0_8_0" index="0" speed="6.51" length="9.03" shape="404.80,239.60 405.15,242.05 406.20,243.80 407.95,244.85 410.40,245.20"/>
    </edge>
    <edge id=":B0_9" function="internal">
        <lane id=":B0_9_0" index="0" speed="13.89" length="20.80" shape="404.80,239.60 404.80,260.40"/>
        <lane id=":B0_9_1" index="1" speed="13.89" length="20.80" shape="401.60,239.60 401.60,260.40"/>
    </edge>
    <edge id=":B0_11" function="internal">
        <lane id=":B0_11_0" index="0" speed="9.26" length="19.35" shape="401.60,239.60 400.85,244.85 398.60,248.60 394.85,250.85 389.60,251.60"/>
    </edge>
    <edge id=":B0_12" function="internal">
        <lane id=":B0_12_0" index="0" speed="6.51" length="9.03" shape="389.60,245.20 392.05,244.85 393.80,243.80 394.85,242.05 395.20,239.60"/>
    </edge>
    <edge id=":B0_13" function="internal">
        <lane id=":B0_13_0" index="0" speed="13.89" length="20.80" shape="389.60,245.20 410.40,245.20"/>
        <lane id=":B0_13_1" index="1" speed="13.89" length="20.80" shape="389.60,248.40 410.40,248.40"/>
    </edge>
    <edge id=":B0_15" function="internal">
        <lane id=":B0_15_0" index="0" speed="9.26" length="19.35" shape="389.60,248.40 394.85,249.15 398.60,251.40 400.85,255.15 401.60,260.40"/>
    </edge>
    <edge id=":B1_0" function="internal">
        <lane id=":B1_0_0" index="0" speed="6.51" length="9.03" shape="395.20,410.40 394.85,407.95 393.80,406.20 392.05,405.15 389.60,404.80"/>
    </edge>
    <edge id=":B1_1" function="internal">
        <lane id=":B1_1_0" index="0" speed="13.89" length="20.80" shape="395.20,410.40 395.20,389.60"/>
        <lane id=":B1_1_1" index="1" speed="13.89" length="20.80" shape="398.40,410.40 398.40,389.60"/>
    </edge>
    <edge id=":B1_3" function="internal">
        <lane id=":B1_3_0" index="0" speed="9.26" length="19.35" shape="398.40,410.40 399.15,405.15 401.40,401.40 405.15,399.15 410.40,398.40"/>
    </edge>
    <edge id=":B1_4" function="internal">
        <lane id=":B1_4_0" index="0" speed="6.51" length="9.03" shape="410.40,404.80 407.95,405.15 406.20,406.20 405.15,407.95 404.80,410.40"/>
    </edge>
    <edge id=":B1_5" function="internal">
        <lane id=":B1_5_0" index="0" speed="13.89" length="20.80" shape="410.40,404.80 389.60,404.80"/>
        <lane id=":B1_5_1" index="1" speed="13.89" length="20.80" shape="410.40,401.60 389.60,401.60"/>
    </edge>
    <edge id=":B1_7" function="internal">
        <lane id=":B1_7_0" index="0" speed="9.26" length="19.35" shape="410.40,401.60 405.15,400.85 401.40,398.60 399.15,394.85 398.40,389.60"/>
    </edge>
    <edge id=":B1_8" function="internal">
        <lane id=":B1_8_0" index="0" speed="6.51" length="9.03" shape="404.80,389.60 405.15,392.05 406.20,393.80 407.95,394.85 410.40,395.20"/>
    </edge>
    <edge id=":B1_9" function="internal">
        <lane id=":B1_9_0" index="0" speed="13.89" length="20.80" shape="404.80,389.60 404.80,410.40"/>
        <lane id=":B1_9_1" index="1" speed="13.89" length="20.80" shape="401.60,389.60 401.60,410.40"/>
    </edge>
    <edge id=":B1_11" function="internal">
        <lane id=":B1_11_0" index="0" speed="9.26" length="19.35" shape="401.60,389.60 400.85,394.85 398.60,398.60 394.85,400.85 389.60,401.60"/>
    </edge>
    <edge id=":B1_12" function="internal">
        <lane id=":B1_12_0" index="0" speed="6.51" length="9.03" shape="389.60,395.20 392.05,394.85 393.80,393.80 394.85,392.05 395.20,389.60"/>
    </edge>
    <edge id=":B1_13" function="internal">
        <lane id=":B1_13_0" index="0" speed="13.89" length="20.80" shape="389.60,395.20 410.40,395.20"/>
        <lane id=":B1_13_1" index="1" speed="13.89" length="20.80" shape="389.60,398.40 410.40,398.40"/>
    </edge>
    <edge id=":B1_15" function="internal">
        <lane id=":B1_15_0" index="0" speed="9.26" length="19.35" shape="389.60,398.40 394.85,399.15 398.60,401.40 400.85,405.15 401.60,410.40"/>
    </edge>

    <edge id="A0A1" from="A0" to="A1" priority="-1">
        <lane id="A0A1_0" index="0" speed="13.89" length="129.20" shape="254.80,260.40 254.80,389.60"/>
        <lane id="A0A1_1" index="1" speed="13.89" length="129.20" shape="251.60,260.40 251.60,389.60"/>
    </edge>
    <edge id="A0B0" from="A0" to="B0" priority="-1">
        <lane id="A0B0_0" index="0" speed="13.89" length="129.20" shape="260.40,245.20 389.60,245.20"/>
        <lane id="A0B0_1" index="1" speed="13.89" length="129.20" shape="260.40,248.40 389.60,248.40"/>
    </edge>
    <edge id="A0bottom0" from="A0" to="bottom0" priority="-1">
        <lane id="A0bottom0_0" index="0" speed="13.89" length="239.60" shape="245.20,239.60 245.20,0.00"/>
        <lane id="A0bottom0_1" index="1" speed="13.89" length="239.60" shape="248.40,239.60 248.40,0.00"/>
    </edge>
    <edge id="A0left0" from="A0" to="left0" priority="-1">
        <lane id="A0left0_0" index="0" speed="13.89" length="239.60" shape="239.60,254.80 0.00,254.80"/>
        <lane id="A0left0_1" index="1" speed="13.89" length="239.60" shape="239.60,251.60 0.00,251.60"/>
    </edge>
    <edge id="A1A0" from="A1" to="A0" priority="-1">
        <lane id="A1A0_0" index="0" speed="13.89" length="129.20" shape="245.20,389.60 245.20,260.40"/>
        <lane id="A1A0_1" index="1" speed="13.89" length="129.20" shape="248.40,389.60 248.40,260.40"/>
    </edge>
    <edge id="A1B1" from="A1" to="B1" priority="-1">
        <lane id="A1B1_0" index="0" speed="13.89" length="129.20" shape="260.40,395.20 389.60,395.20"/>
        <lane id="A1B1_1" index="1" speed="13.89" length="129.20" shape="260.40,398.40 389.60,398.40"/>
    </edge>
    <edge id="A1left1" from="A1" to="left1" priority="-1">
        <lane id="A1left1_0" index="0" speed="13.89" length="239.60" shape="239.60,404.80 0.00,404.80"/>
        <lane id="A1left1_1" index="1" speed="13.89" length="239.60" shape="239.60,401.60 0.00,401.60"/>
    </edge>
    <edge id="A1top0" from="A1" to="top0" priority="-1">
        <lane id="A1top0_0" index="0" speed="13.89" length="239.60" shape="254.80,410.40 254.80,650.00"/>
        <lane id="A1top0_1" index="1" speed="13.89" length="239.60" shape="251.60,410.40 251.60,650.00"/>
    </edge>
    <edge id="B0A0" from="B0" to="A0" priority="-1">
        <lane id="B0A0_0" index="0" speed="13.89" length="129.20" shape="389.60,254.80 260.40,254.80"/>
        <lane id="B0A0_1" index="1" speed="13.89" length="129.20" shape="389.60,251.60 260.40,251.60"/>
    </edge>
    <edge id="B0B1" from="B0" to="B1" priority="-1">
        <lane id="B0B1_0" index="0" speed="13.89" length="129.20" shape="404.80,260.40 404.80,389.60"/>
        <lane id="B0B1_1" index="1" speed="13.89" length="129.20" shape="401.60,260.40 401.60,389.60"/>
    </edge>
    <edge id="B0bottom1" from="B0" to="bottom1" priority="-1">
        <lane id="B0bottom1_0" index="0" speed="13.89" length="239.60" shape="395.20,239.60 395.20,0.00"/>
        <lane id="B0bottom1_1" index="1" speed="13.89" length="239.60" shape="398.40,239.60 398.40,0.00"/>
    </edge>
    <edge id="B0right0" from="B0" to="right0" priority="-1">
        <lane id="B0right0_0" index="0" speed="13.89" length="239.60" shape="410.40,245.20 650.00,245.20"/>
        <lane id="B0right0_1" index="1" speed="13.89" length="239.60" shape="410.40,248.40 650.00,248.40"/>
    </edge>
    <edge id="B1A1" from="B1" to="A1" priority="-1">
        <lane id="B1A1_0" index="0" speed="13.89" length="129.20" shape="389.60,404.80 260.40,404.80"/>
        <lane id="B1A1_1" index="1" speed="13.89" length="129.20" shape="389.60,401.60 260.40,401.60"/>
    </edge>
    <edge id="B1B0" from="B1" to="B0" priority="-1">
        <lane id="B1B0_0" index="0" speed="13.89" length="129.20" shape="395.20,389.60 395.20,260.40"/>
        <lane id="B1B0_1" index="1" speed="13.89" length="129.20" shape="398.40,389.60 398.40,260.40"/>
    </edge>
    <edge id="B1right1" from="B1" to="right1" priority="-1">
        <lane id="B1right1_0" index="0" speed="13.89" length="239.60" shape="410.40,395.20 650.00,395.20"/>
        <lane id="B1right1_1" index="1" speed="13.89" length="239.60" shape="410.40,398.40 650.00,398.40"/>
    </edge>
    <edge id="B1top1" from="B1" to="top1" priority="-1">
        <lane id="B1top1_0" index="0" speed="13.89" length="239.60" shape="404.80,410.40 404.80,650.00"/>
        <lane id="B1top1_1" index="1" speed="13.89" length="239.60" shape="401.60,410.40 401.60,650.00"/>
    </edge>
    <edge id="bottom0A0" from="bottom0" to="A0" priority="-1">
        <lane id="bottom0A0_0" index="0" speed="13.89" length="239.60" shape="254.80,0.00 254.80,239.60"/>
        <lane id="bottom0A0_1" index="1" speed="13.89" length="239.60" shape="251.60,0.00 251.60,239.60"/>
    </edge>
    <edge id="bottom1B0" from="bottom1" to="B0" priority="-1">
        <lane id="bottom1B0_0" index="0" speed="13.89" length="239.60" shape="404.80,0.00 404.80,239.60"/>
        <lane id="bottom1B0_1" index="1" speed="13.89" length="239.60" shape="401.60,0.00 401.60,239.60"/>
    </edge>
    <edge id="left0A0" from="left0" to="A0" priority="-1">
        <lane id="left0A0_0" index="0" speed="13.89" length="239.60" shape="0.00,245.20 239.60,245.20"/>
        <lane id="left0A0_1" index="1" speed="13.89" length="239.60" shape="0.00,248.40 239.60,248.40"/>
    </edge>
    <edge id="left1A1" from="left1" to="A1" priority="-1">
        <lane id="left1A1_0" index="0" speed="13.89" length="239.60" shape="0.00,395.20 239.60,395.20"/>
        <lane id="left1A1_1" index="1" speed="13.89" length="239.60" shape="0.00,398.40 239.60,398.40"/>
    </edge>
    <edge id="right0B0" from="right0" to="B0" priority="-1">
        <lane id="right0B0_0" index="0" speed="13.89" length="239.60" shape="650.00,254.80 410.40,254.80"/>
        <lane id="right0B0_1" index="1" speed="13.89" length="239.60" shape="650.00,251.60 410.40,251.60"/>
    </edge>
    <edge id="right1B1" from="right1" to="B1" priority="-1">
        <lane id="right1B1_0" index="0" speed="13.89" length="239.60" shape="650.00,404.80 410.40,404.80"/>
        <lane id="right1B1_1" index="1" speed="13.89" length="239.60" shape="650.00,401.60 410.40,401.60"/>
    </edge>
    <edge id="top0A1" from="top0" to="A1" priority="-1">
        <lane id="top0A1_0" index="0" speed="13.89" length="239.60" shape="245.20,650.00 245.20,410.40"/>
        <lane id="top0A1_1" index="1" speed="13.89" length="239.60" shape="248.40,650.00 248.40,410.40"/>
    </edge>
    <edge id="top1B1" from="top1" to="B1" priority="-1">
        <lane id="top1B1_0" index="0" speed="13.89" length="239.60" shape="395.20,650.00 395.20,410.40"/>
        <lane id="top1B1_1" index="1" speed="13.89" length="239.60" shape="398.40,650.00 398.40,410.40"/>
    </edge>

    <tlLogic id="A0" type="static" programID="0" offset="0">
        <phase duration="13" state="GGGGrrrrrrrrrrrr"/>
        <phase duration="3"  state="yyyyrrrrrrrrrrrr"/>
        <phase duration="5"  state="rrrrrrrrrrrrrrrr"/>
        <phase duration="15" state="rrrrGGGGrrrrrrrr"/>
        <phase duration="3"  state="rrrryyyyrrrrrrrr"/>
        <phase duration="5"  state="rrrrrrrrrrrrrrrr"/>
        <phase duration="15" state="rrrrrrrrGGGGrrrr"/>
        <phase duration="3"  state="rrrrrrrryyyyrrrr"/>
        <phase duration="5"  state="rrrrrrrrrrrrrrrr"/>
        <phase duration="15" state="rrrrrrrrrrrrGGGG"/>
        <phase duration="3"  state="rrrrrrrrrrrryyyy"/>
        <phase duration="5"  state="rrrrrrrrrrrrrrrr"/>
    </tlLogic>
    <tlLogic id="A1" type="static" programID="0" offset="0">
        <phase duration="13" state="GGGGrrrrrrrrrrrr"/>
        <phase duration="3"  state="yyyyrrrrrrrrrrrr"/>
        <phase duration="5"  state="rrrrrrrrrrrrrrrr"/>
        <phase duration="15" state="rrrrGGGGrrrrrrrr"/>
        <phase duration="3"  state="rrrryyyyrrrrrrrr"/>
        <phase duration="5"  state="rrrrrrrrrrrrrrrr"/>
        <phase duration="15" state="rrrrrrrrGGGGrrrr"/>
        <phase duration="3"  state="rrrrrrrryyyyrrrr"/>
        <phase duration="5"  state="rrrrrrrrrrrrrrrr"/>
        <phase duration="15" state="rrrrrrrrrrrrGGGG"/>
        <phase duration="3"  state="rrrrrrrrrrrryyyy"/>
        <phase duration="5"  state="rrrrrrrrrrrrrrrr"/>
    </tlLogic>
    <tlLogic id="B0" type="static" programID="0" offset="0">
        <phase duration="13" state="GGGGrrrrrrrrrrrr"/>
        <phase duration="3"  state="yyyyrrrrrrrrrrrr"/>
        <phase duration="5"  state="rrrrrrrrrrrrrrrr"/>
        <phase duration="15" state="rrrrGGGGrrrrrrrr"/>
        <phase duration="3"  state="rrrryyyyrrrrrrrr"/>
        <phase duration="5"  state="rrrrrrrrrrrrrrrr"/>
        <phase duration="15" state="rrrrrrrrGGGGrrrr"/>
        <phase duration="3"  state="rrrrrrrryyyyrrrr"/>
        <phase duration="5"  state="rrrrrrrrrrrrrrrr"/>
        <phase duration="15" state="rrrrrrrrrrrrGGGG"/>
        <phase duration="3"  state="rrrrrrrrrrrryyyy"/>
        <phase duration="5"  state="rrrrrrrrrrrrrrrr"/>
    </tlLogic>
    <tlLogic id="B1" type="static" programID="0" offset="0">
        <phase duration="13" state="GGGGrrrrrrrrrrrr"/>
        <phase duration="3"  state="yyyyrrrrrrrrrrrr"/>
        <phase duration="5"  state="rrrrrrrrrrrrrrrr"/>
        <phase duration="15" state="rrrrGGGGrrrrrrrr"/>
        <phase duration="3"  state="rrrryyyyrrrrrrrr"/>
        <phase duration="5"  state="rrrrrrrrrrrrrrrr"/>
        <phase duration="15" state="rrrrrrrrGGGGrrrr"/>
        <phase duration="3"  state="rrrrrrrryyyyrrrr"/>
        <phase duration="5"  state="rrrrrrrrrrrrrrrr"/>
        <phase duration="15" state="rrrrrrrrrrrrGGGG"/>
        <phase duration="3"  state="rrrrrrrrrrrryyyy"/>
        <phase duration="5"  state="rrrrrrrrrrrrrrrr"/>
    </tlLogic>

    <junction id="A0" type="traffic_light" x="250.00" y="250.00" incLanes="A1A0_0 A1A0_1 B0A0_0 B0A0_1 bottom0A0_0 bottom0A0_1 left0A0_0 left0A0_1" intLanes=":A0_0_0 :A0_1_0 :A0_1_1 :A0_3_0 :A0_4_0 :A0_5_0 :A0_5_1 :A0_7_0 :A0_8_0 :A0_9_0 :A0_9_1 :A0_11_0 :A0_12_0 :A0_13_0 :A0_13_1 :A0_15_0" shape="243.60,260.40 256.40,260.40 256.84,258.18 257.40,257.40 258.18,256.84 259.18,256.51 260.40,256.40 260.40,243.60 258.18,243.16 257.40,242.60 256.84,241.82 256.51,240.82 256.40,239.60 243.60,239.60 243.16,241.82 242.60,242.60 241.82,243.16 240.82,243.49 239.60,243.60 239.60,256.40 241.82,256.84 242.60,257.40 243.16,258.18 243.49,259.18">
        <request index="0"  response="0000000000000000" foes="0000000001100000" cont="0"/>
        <request index="1"  response="0000000000000000" foes="1111100011100000" cont="0"/>
        <request index="2"  response="0000000000000000" foes="1111100011100000" cont="0"/>
        <request index="3"  response="0000011000000000" foes="1110011011100000" cont="0"/>
        <request index="4"  response="0000011000000000" foes="0000011000000000" cont="0"/>
        <request index="5"  response="0000111000001111" foes="1000111000001111" cont="0"/>
        <request index="6"  response="0000111000001111" foes="1000111000001111" cont="0"/>
        <request index="7"  response="0110111000001110" foes="0110111000001110" cont="0"/>
        <request index="8"  response="0000000000000000" foes="0110000000000000" cont="0"/>
        <request index="9"  response="0000000000000000" foes="1110000011111000" cont="0"/>
        <request index="10" response="0000000000000000" foes="1110000011111000" cont="0"/>
        <request index="11" response="0000000000000110" foes="1110000011100110" cont="0"/>
        <request index="12" response="0000000000000110" foes="0000000000000110" cont="0"/>
        <request index="13" response="0000111100001110" foes="0000111110001110" cont="0"/>
        <request index="14" response="0000111100001110" foes="0000111110001110" cont="0"/>
        <request index="15" response="0000111001101110" foes="0000111001101110" cont="0"/>
    </junction>
    <junction id="A1" type="traffic_light" x="250.00" y="400.00" incLanes="top0A1_0 top0A1_1 B1A1_0 B1A1_1 A0A1_0 A0A1_1 left1A1_0 left1A1_1" intLanes=":A1_0_0 :A1_1_0 :A1_1_1 :A1_3_0 :A1_4_0 :A1_5_0 :A1_5_1 :A1_7_0 :A1_8_0 :A1_9_0 :A1_9_1 :A1_11_0 :A1_12_0 :A1_13_0 :A1_13_1 :A1_15_0" shape="243.60,410.40 256.40,410.40 256.84,408.18 257.40,407.40 258.18,406.84 259.18,406.51 260.40,406.40 260.40,393.60 258.18,393.16 257.40,392.60 256.84,391.82 256.51,390.82 256.40,389.60 243.60,389.60 243.16,391.82 242.60,392.60 241.82,393.16 240.82,393.49 239.60,393.60 239.60,406.40 241.82,406.84 242.60,407.40 243.16,408.18 243.49,409.18">
        <request index="0"  response="0000000000000000" foes="0000000001100000" cont="0"/>
        <request index="1"  response="0000000000000000" foes="1111100011100000" cont="0"/>
        <request index="2"  response="0000000000000000" foes="1111100011100000" cont="0"/>
        <request index="3"  response="0000011000000000" foes="1110011011100000" cont="0"/>
        <request index="4"  response="0000011000000000" foes="0000011000000000" cont="0"/>
        <request index="5"  response="0000111000001111" foes="1000111000001111" cont="0"/>
        <request index="6"  response="0000111000001111" foes="1000111000001111" cont="0"/>
        <request index="7"  response="0110111000001110" foes="0110111000001110" cont="0"/>
        <request index="8"  response="0000000000000000" foes="0110000000000000" cont="0"/>
        <request index="9"  response="0000000000000000" foes="1110000011111000" cont="0"/>
        <request index="10" response="0000000000000000" foes="1110000011111000" cont="0"/>
        <request index="11" response="0000000000000110" foes="1110000011100110" cont="0"/>
        <request index="12" response="0000000000000110" foes="0000000000000110" cont="0"/>
        <request index="13" response="0000111100001110" foes="0000111110001110" cont="0"/>
        <request index="14" response="0000111100001110" foes="0000111110001110" cont="0"/>
        <request index="15" response="0000111001101110" foes="0000111001101110" cont="0"/>
    </junction>
    <junction id="B0" type="traffic_light" x="400.00" y="250.00" incLanes="B1B0_0 B1B0_1 right0B0_0 right0B0_1 bottom1B0_0 bottom1B0_1 A0B0_0 A0B0_1" intLanes=":B0_0_0 :B0_1_0 :B0_1_1 :B0_3_0 :B0_4_0 :B0_5_0 :B0_5_1 :B0_7_0 :B0_8_0 :B0_9_0 :B0_9_1 :B0_11_0 :B0_12_0 :B0_13_0 :B0_13_1 :B0_15_0" shape="393.60,260.40 406.40,260.40 406.84,258.18 407.40,257.40 408.18,256.84 409.18,256.51 410.40,256.40 410.40,243.60 408.18,243.16 407.40,242.60 406.84,241.82 406.51,240.82 406.40,239.60 393.60,239.60 393.16,241.82 392.60,242.60 391.82,243.16 390.82,243.49 389.60,243.60 389.60,256.40 391.82,256.84 392.60,257.40 393.16,258.18 393.49,259.18">
        <request index="0"  response="0000000000000000" foes="0000000001100000" cont="0"/>
        <request index="1"  response="0000000000000000" foes="1111100011100000" cont="0"/>
        <request index="2"  response="0000000000000000" foes="1111100011100000" cont="0"/>
        <request index="3"  response="0000011000000000" foes="1110011011100000" cont="0"/>
        <request index="4"  response="0000011000000000" foes="0000011000000000" cont="0"/>
        <request index="5"  response="0000111000001111" foes="1000111000001111" cont="0"/>
        <request index="6"  response="0000111000001111" foes="1000111000001111" cont="0"/>
        <request index="7"  response="0110111000001110" foes="0110111000001110" cont="0"/>
        <request index="8"  response="0000000000000000" foes="0110000000000000" cont="0"/>
        <request index="9"  response="0000000000000000" foes="1110000011111000" cont="0"/>
        <request index="10" response="0000000000000000" foes="1110000011111000" cont="0"/>
        <request index="11" response="0000000000000110" foes="1110000011100110" cont="0"/>
        <request index="12" response="0000000000000110" foes="0000000000000110" cont="0"/>
        <request index="13" response="0000111100001110" foes="0000111110001110" cont="0"/>
        <request index="14" response="0000111100001110" foes="0000111110001110" cont="0"/>
        <request index="15" response="0000111001101110" foes="0000111001101110" cont="0"/>
    </junction>
    <junction id="B1" type="traffic_light" x="400.00" y="400.00" incLanes="top1B1_0 top1B1_1 right1B1_0 right1B1_1 B0B1_0 B0B1_1 A1B1_0 A1B1_1" intLanes=":B1_0_0 :B1_1_0 :B1_1_1 :B1_3_0 :B1_4_0 :B1_5_0 :B1_5_1 :B1_7_0 :B1_8_0 :B1_9_0 :B1_9_1 :B1_11_0 :B1_12_0 :B1_13_0 :B1_13_1 :B1_15_0" shape="393.60,410.40 406.40,410.40 406.84,408.18 407.40,407.40 408.18,406.84 409.18,406.51 410.40,406.40 410.40,393.60 408.18,393.16 407.40,392.60 406.84,391.82 406.51,390.82 406.40,389.60 393.60,389.60 393.16,391.82 392.60,392.60 391.82,393.16 390.82,393.49 389.60,393.60 389.60,406.40 391.82,406.84 392.60,407.40 393.16,408.18 393.49,409.18">
        <request index="0"  response="0000000000000000" foes="0000000001100000" cont="0"/>
        <request index="1"  response="0000000000000000" foes="1111100011100000" cont="0"/>
        <request index="2"  response="0000000000000000" foes="1111100011100000" cont="0"/>
        <request index="3"  response="0000011000000000" foes="1110011011100000" cont="0"/>
        <request index="4"  response="0000011000000000" foes="0000011000000000" cont="0"/>
        <request index="5"  response="0000111000001111" foes="1000111000001111" cont="0"/>
        <request index="6"  response="0000111000001111" foes="1000111000001111" cont="0"/>
        <request index="7"  response="0110111000001110" foes="0110111000001110" cont="0"/>
        <request index="8"  response="0000000000000000" foes="0110000000000000" cont="0"/>
        <request index="9"  response="0000000000000000" foes="1110000011111000" cont="0"/>
        <request index="10" response="0000000000000000" foes="1110000011111000" cont="0"/>
        <request index="11" response="0000000000000110" foes="1110000011100110" cont="0"/>
        <request index="12" response="0000000000000110" foes="0000000000000110" cont="0"/>
        <request index="13" response="0000111100001110" foes="0000111110001110" cont="0"/>
        <request index="14" response="0000111100001110" foes="0000111110001110" cont="0"/>
        <request index="15" response="0000111001101110" foes="0000111001101110" cont="0"/>
    </junction>