<?xml version="1.0" encoding="UTF-8"?>

<!-- generated on 2024-12-11 05:25:39.197349 by randomTrips.py UNKNOWN
<configuration>
    <net-file value="2x2.net.xml"/>
    <route-file value="2x2.rou.xml"/>
    <seed value="45"/>
    <end value="100.0"/>
    <period value="0.4"/>
    <random-depart value="True"/>
</configuration>
-->

<!-- generated on 2024-12-11 05:25:39 by Eclipse SUMO duarouter Version 1.21.0
<duarouterConfiguration xmlns:xsi="http://www.w3.org/2001/XMLSchema-instance" xsi:noNamespaceSchemaLocation="http://sumo.dlr.de/xsd/duarouterConfiguration.xsd">

    <input>
        <net-file value="2x2.net.xml"/>
        <route-files value="trips.trips.xml"/>
    </input>

    <output>
        <output-file value="2x2.rou.xml"/>
        <alternatives-output value="NUL"/>
    </output>

    <time>
        <begin value="0.0"/>
        <end value="100.0"/>
    </time>

    <report>
        <no-warnings value="true"/>
        <ignore-errors value="true"/>
        <no-step-log value="true"/>
    </report>

</duarouterConfiguration>
-->

<routes xmlns:xsi="http://www.w3.org/2001/XMLSchema-instance" xsi:noNamespaceSchemaLocation="http://sumo.dlr.de/xsd/routes_file.xsd">
    <vehicle id="0" depart="0.00">
        <route edges="A1B1 B1B0 B0A0 A0A1 A1left1"/>
    </vehicle>
    <vehicle id="1" depart="0.80">
        <route edges="A1B1 B1B0 B0A0 A0bottom0"/>
    </vehicle>
    <vehicle id="2" depart="1.60">
        <route edges="right0B0 B0B1 B1A1 A1A0"/>
    </vehicle>
    <vehicle id="3" depart="2.20">
        <route edges="left0A0 A0A1 A1B1 B1right1"/>
    </vehicle>
    <vehicle id="4" depart="2.40">
        <route edges="top0A1 A1B1 B1B0"/>
    </vehicle>
    <vehicle id="5" depart="2.40">
        <route edges="B1B0 B0A0"/>
    </vehicle>
    <vehicle id="6" depart="3.60">
        <route edges="A0A1 A1B1 B1B0 B0bottom1"/>
    </vehicle>
    <vehicle id="7" depart="4.00">
        <route edges="bottom0A0 A0A1 A1B1"/>
    </vehicle>
    <vehicle id="8" depart="4.40">
        <route edges="right1B1 B1A1"/>
    </vehicle>
    <vehicle id="9" depart="4.80">
        <route edges="right0B0 B0A0 A0A1 A1B1"/>
    </vehicle>
    <vehicle id="10" depart="5.20">
        <route edges="bottom0A0 A0B0 B0B1 B1A1"/>
    </vehicle>
    <vehicle id="11" depart="5.60">
        <route edges="top0A1 A1B1 B1B0 B0A0 A0A1 A1top0"/>
    </vehicle>
    <vehicle id="12" depart="5.80">
        <route edges="left1A1 A1A0 A0B0 B0B1"/>
    </vehicle>
    <vehicle id="13" depart="6.00">
        <route edges="A1B1 B1B0"/>
    </vehicle>
    <vehicle id="14" depart="6.20">
        <route edges="bottom0A0 A0A1 A1B1 B1B0 B0A0 A0bottom0"/>
    </vehicle>
    <vehicle id="15" depart="6.40">
        <route edges="bottom1B0 B0A0 A0A1 A1B1 B1B0"/>
    </vehicle>
    <vehicle id="16" depart="7.00">
        <route edges="A1A0 A0bottom0"/>
    </vehicle>
    <vehicle id="17" depart="7.00">
        <route edges="left0A0 A0bottom0"/>
    </vehicle>
    <vehicle id="18" depart="7.20">
        <route edges="right0B0 B0B1"/>
    </vehicle>
    <vehicle id="19" depart="7.60">
        <route edges="B1B0 B0A0 A0A1 A1top0"/>
    </vehicle>
    <vehicle id="20" depart="8.20">
        <route edges="top1B1 B1A1 A1A0"/>
    </vehicle>
    <vehicle id="21" depart="8.40">
        <route edges="bottom1B0 B0B1 B1A1 A1left1"/>
    </vehicle>
    <vehicle id="22" depart="9.20">
        <route edges="top1B1 B1A1 A1left1"/>
    </vehicle>
    <vehicle id="23" depart="9.40">
        <route edges="A0A1 A1top0"/>
    </vehicle>
    <vehicle id="24" depart="9.40">
        <route edges="bottom0A0 A0B0 B0right0"/>
    </vehicle>
    <vehicle id="25" depart="10.00">
        <route edges="left0A0 A0A1 A1B1 B1right1"/>
    </vehicle>
    <vehicle id="26" depart="10.20">
        <route edges="A1B1 B1B0 B0bottom1"/>
    </vehicle>
    <vehicle id="27" depart="10.20">
        <route edges="right1B1 B1B0 B0A0 A0A1 A1B1 B1right1"/>
    </vehicle>
    <vehicle id="28" depart="11.20">
        <route edges="right0B0 B0bottom1"/>
    </vehicle>
    <vehicle id="29" depart="11.80">
        <route edges="B1A1 A1A0 A0B0 B0B1 B1right1"/>
    </vehicle>
    <vehicle id="30" depart="12.00">
        <route edges="left1A1 A1B1 B1B0 B0A0 A0A1 A1left1"/>
    </vehicle>
    <vehicle id="31" depart="12.20">
        <route edges="top1B1 B1right1"/>
    </vehicle>
    <vehicle id="32" depart="12.40">
        <route edges="top1B1 B1B0 B0A0 A0A1 A1B1 B1top1"/>
    </vehicle>
    <vehicle id="33" depart="12.80">
        <route edges="top1B1 B1A1 A1left1"/>
    </vehicle>
    <vehicle id="34" depart="12.80">
        <route edges="B1A1 A1A0 A0B0 B0B1 B1top1"/>
    </vehicle>
    <vehicle id="35" depart="13.00">
        <route edges="A0A1 A1B1 B1top1"/>
    </vehicle>
    <vehicle id="36" depart="13.00">
        <route edges="right1B1 B1B0 B0A0 A0left0"/>
    </vehicle>
    <vehicle id="37" depart="13.00">
        <route edges="left0A0 A0A1 A1left1"/>
    </vehicle>
    <vehicle id="38" depart="13.80">
        <route edges="left1A1 A1B1 B1right1"/>
    </vehicle>
    <vehicle id="39" depart="15.40">
        <route edges="right0B0 B0A0 A0A1 A1B1 B1B0"/>
    </vehicle>
    <vehicle id="40" depart="15.60">
        <route edges="B0A0"/>
    </vehicle>
    <vehicle id="41" depart="16.00">
        <route edges="B1B0 B0A0 A0A1 A1B1 B1top1"/>
    </vehicle>
    <vehicle id="42" depart="16.00">
        <route edges="A1B1 B1B0 B0right0"/>
    </vehicle>
    <vehicle id="43" depart="16.20">
        <route edges="left0A0 A0A1 A1B1"/>
    </vehicle>
    <vehicle id="44" depart="16.40">
        <route edges="top0A1 A1B1 B1right1"/>
    </vehicle>
    <vehicle id="45" depart="17.40">
        <route edges="B0A0 A0A1 A1B1"/>
    </vehicle>
    <vehicle id="46" depart="17.60">
        <route edges="left0A0 A0bottom0"/>
    </vehicle>
    <vehicle id="48" depart="18.20">
        <route edges="left1A1 A1top0"/>
    </vehicle>
    <vehicle id="50" depart="18.60">
        <route edges="bottom0A0 A0B0 B0bottom1"/>
    </vehicle>
    <vehicle id="51" depart="18.80">
        <route edges="A1B1 B1B0 B0bottom1"/>
    </vehicle>
    <vehicle id="52" depart="19.00">
        <route edges="B0B1 B1top1"/>
    </vehicle>
    <vehicle id="54" depart="20.60">
        <route edges="B1A1 A1A0 A0bottom0"/>
    </vehicle>
    <vehicle id="55" depart="21.60">
        <route edges="A1A0 A0B0 B0B1 B1A1"/>
    </vehicle>
    <vehicle id="56" depart="22.00">
        <route edges="bottom0A0 A0B0 B0right0"/>
    </vehicle>
    <vehicle id="57" depart="23.40">
        <route edges="A1A0 A0B0 B0bottom1"/>
    </vehicle>
    <vehicle id="58" depart="23.40">
        <route edges="right0B0 B0B1 B1A1 A1A0 A0B0"/>
    </vehicle>
    <vehicle id="59" depart="24.20">
        <route edges="A1A0 A0B0 B0B1 B1A1 A1top0"/>
    </vehicle>
    <vehicle id="61" depart="24.40">
        <route edges="bottom0A0 A0A1 A1top0"/>
    </vehicle>
    <vehicle id="62" depart="25.80">
        <route edges="B1A1 A1A0 A0bottom0"/>
    </vehicle>
    <vehicle id="63" depart="26.00">
        <route edges="A1A0"/>
    </vehicle>
    <vehicle id="64" depart="26.60">
        <route edges="A0A1 A1B1 B1B0 B0A0 A0bottom0"/>
    </vehicle>
    <vehicle id="65" depart="27.80">
        <route edges="bottom1B0 B0A0"/>
    </vehicle>
    <vehicle id="66" depart="28.20">
        <route edges="B1B0 B0A0"/>
    </vehicle>
    <vehicle id="67" depart="28.40">
        <route edges="bottom1B0 B0B1 B1top1"/>
    </vehicle>
    <vehicle id="68" depart="28.80">
        <route edges="bottom0A0 A0B0 B0B1 B1A1"/>
    </vehicle>
    <vehicle id="70" depart="28.80">
        <route edges="bottom0A0 A0A1 A1B1 B1B0"/>
    </vehicle>
    <vehicle id="71" depart="29.40">
        <route edges="top1B1 B1B0 B0A0 A0left0"/>
    </vehicle>
    <vehicle id="72" depart="30.20">
        <route edges="top0A1 A1B1 B1B0 B0bottom1"/>
    </vehicle>
    <vehicle id="73" depart="30.60">
        <route edges="top0A1 A1B1 B1B0 B0A0 A0A1"/>
    </vehicle>
    <vehicle id="74" depart="30.80">
        <route edges="right1B1 B1B0 B0right0"/>
    </vehicle>
    <vehicle id="75" depart="31.00">
        <route edges="right1B1 B1A1 A1A0"/>
    </vehicle>
    <vehicle id="76" depart="31.20">
        <route edges="B0B1 B1A1 A1A0 A0B0 B0bottom1"/>
    </vehicle>
    <vehicle id="78" depart="32.60">
        <route edges="right1B1 B1A1 A1left1"/>
    </vehicle>
    <vehicle id="79" depart="33.20">
        <route edges="top1B1 B1right1"/>
    </vehicle>
    <vehicle id="80" depart="33.40">
        <route edges="left1A1 A1B1 B1B0"/>
    </vehicle>
    <vehicle id="82" depart="34.00">
        <route edges="top0A1 A1B1"/>
    </vehicle>
    <vehicle id="83" depart="34.20">
        <route edges="bottom1B0 B0B1 B1A1 A1A0 A0B0"/>
    </vehicle>
    <vehicle id="84" depart="34.40">
        <route edges="right0B0 B0A0 A0left0"/>
    </vehicle>
    <vehicle id="85" depart="34.40">
        <route edges="top1B1 B1A1 A1A0 A0B0 B0B1"/>
    </vehicle>
    <vehicle id="86" depart="34.60">
        <route edges="A0A1 A1B1 B1B0 B0A0"/>
    </vehicle>
    <vehicle id="88" depart="36.00">
        <route edges="left0A0 A0B0"/>
    </vehicle>
    <vehicle id="89" depart="36.00">
        <route edges="right1B1 B1B0 B0right0"/>
    </vehicle>
    <vehicle id="90" depart="36.00">
        <route edges="left0A0 A0A1 A1B1"/>
    </vehicle>
    <vehicle id="92" depart="36.80">
        <route edges="left0A0 A0B0 B0B1 B1top1"/>
    </vehicle>
    <vehicle id="93" depart="37.40">
        <route edges="left0A0 A0B0 B0right0"/>
    </vehicle>
    <vehicle id="94" depart="38.00">
        <route edges="B1B0 B0A0 A0left0"/>
    </vehicle>
    <vehicle id="95" depart="38.40">
        <route edges="bottom0A0 A0A1 A1B1 B1right1"/>
    </vehicle>
    <vehicle id="96" depart="39.00">
        <route edges="bottom0A0 A0A1"/>
    </vehicle>
    <vehicle id="97" depart="39.00">
        <route edges="left0A0 A0A1 A1B1 B1B0"/>
    </vehicle>
    <vehicle id="98" depart="40.60">
        <route edges="B1B0 B0bottom1"/>
    </vehicle>
    <vehicle id="99" depart="41.80">
        <route edges="A1A0 A0B0 B0bottom1"/>
    </vehicle>
    <vehicle id="100" depart="42.20">
        <route edges="bottom0A0 A0B0 B0B1 B1A1"/>
    </vehicle>
    <vehicle id="101" depart="43.40">
        <route edges="B1B0 B0A0 A0A1 A1top0"/>
    </vehicle>
    <vehicle id="102" depart="43.60">
        <route edges="B1B0 B0A0 A0A1 A1B1 B1right1"/>
    </vehicle>
    <vehicle id="103" depart="43.60">
        <route edges="top1B1 B1B0 B0A0"/>
    </vehicle>
    <vehicle id="104" depart="43.80">
        <route edges="A1B1 B1B0 B0right0"/>
    </vehicle>
    <vehicle id="105" depart="43.80">
        <route edges="B0A0 A0A1 A1B1 B1right1"/>
    </vehicle>
    <vehicle id="106" depart="44.60">
        <route edges="A0B0 B0B1 B1A1 A1left1"/>
    </vehicle>
    <vehicle id="107" depart="45.00">
        <route edges="top0A1 A1B1 B1B0 B0A0 A0A1"/>
    </vehicle>
    <vehicle id="108" depart="45.20">
        <route edges="right1B1 B1A1 A1A0 A0B0 B0B1"/>
    </vehicle>
    <vehicle id="109" depart="45.60">
        <route edges="left1A1 A1A0 A0B0"/>
    </vehicle>
    <vehicle id="110" depart="45.60">
        <route edges="left1A1 A1B1 B1top1"/>
    </vehicle>
    <vehicle id="111" depart="46.40">
        <route edges="A0A1 A1B1 B1B0 B0A0 A0left0"/>
    </vehicle>
    <vehicle id="112" depart="46.60">
        <route edges="right1B1 B1A1"/>
    </vehicle>
    <vehicle id="113" depart="48.20">
        <route edges="bottom1B0 B0B1 B1top1"/>
    </vehicle>
    <vehicle id="114" depart="48.20">
        <route edges="bottom1B0 B0A0 A0left0"/>
    </vehicle>
    <vehicle id="115" depart="48.60">
        <route edges="right0B0 B0B1 B1A1 A1A0"/>
    </vehicle>
    <vehicle id="117" depart="49.40">
        <route edges="A1A0 A0left0"/>
    </vehicle>
    <vehicle id="118" depart="50.20">
        <route edges="right0B0 B0A0 A0A1 A1top0"/>
    </vehicle>
    <vehicle id="119" depart="50.40">
        <route edges="A0A1 A1B1 B1top1"/>
    </vehicle>
    <vehicle id="120" depart="50.80">
        <route edges="A1A0"/>
    </vehicle>
    <vehicle id="121" depart="51.20">
        <route edges="bottom0A0 A0A1 A1B1"/>
    </vehicle>
    <vehicle id="122" depart="51.60">
        <route edges="top0A1 A1B1 B1B0"/>
    </vehicle>
    <vehicle id="123" depart="52.00">
        <route edges="top0A1 A1B1 B1B0 B0A0 A0A1 A1top0"/>
    </vehicle>
    <vehicle id="124" depart="52.00">
        <route edges="A0B0 B0B1 B1A1 A1A0"/>
    </vehicle>
    <vehicle id="126" depart="52.20">
        <route edges="B1A1 A1A0"/>
    </vehicle>
    <vehicle id="127" depart="52.40">
        <route edges="A1B1 B1B0 B0A0 A0A1"/>
    </vehicle>
    <vehicle id="128" depart="52.60">
        <route edges="A1B1 B1top1"/>
    </vehicle>
    <vehicle id="129" depart="52.80">
        <route edges="B0B1 B1A1 A1A0 A0B0 B0right0"/>
    </vehicle>
    <vehicle id="131" depart="53.60">
        <route edges="B1A1 A1top0"/>
    </vehicle>
    <vehicle id="132" depart="53.80">
        <route edges="B1A1 A1A0 A0B0 B0B1 B1right1"/>
    </vehicle>
    <vehicle id="134" depart="55.80">
        <route edges="left1A1 A1B1 B1B0"/>
    </vehicle>
    <vehicle id="135" depart="56.00">
        <route edges="right0B0 B0A0 A0A1 A1B1 B1B0"/>
    </vehicle>
    <vehicle id="137" depart="56.60">
        <route edges="bottom1B0 B0A0 A0A1 A1B1 B1B0"/>
    </vehicle>
    <vehicle id="138" depart="57.40">
        <route edges="A0A1 A1B1"/>
    </vehicle>
    <vehicle id="140" depart="57.60">
        <route edges="right0B0 B0B1"/>
    </vehicle>
    <vehicle id="141" depart="57.80">
        <route edges="top1B1 B1A1 A1A0 A0B0 B0B1"/>
    </vehicle>
    <vehicle id="143" depart="58.20">
        <route edges="B0B1 B1A1 A1A0 A0B0"/>
    </vehicle>
    <vehicle id="144" depart="58.40">
        <route edges="right0B0 B0B1 B1top1"/>
    </vehicle>
    <vehicle id="145" depart="58.80">
        <route edges="top0A1 A1B1 B1B0 B0A0 A0A1"/>
    </vehicle>
    <vehicle id="146" depart="59.00">
        <route edges="right1B1 B1top1"/>
    </vehicle>
    <vehicle id="147" depart="59.20">
        <route edges="A1B1 B1B0 B0A0 A0left0"/>
    </vehicle>
    <vehicle id="148" depart="59.20">
        <route edges="A1B1 B1B0 B0A0 A0A1 A1left1"/>
    </vehicle>
    <vehicle id="149" depart="60.40">
        <route edges="right1B1 B1B0"/>
    </vehicle>
    <vehicle id="150" depart="62.80">
        <route edges="A0B0"/>
    </vehicle>
    <vehicle id="151" depart="63.40">
        <route edges="right0B0 B0A0 A0A1 A1B1 B1B0"/>
    </vehicle>
    <vehicle id="152" depart="63.80">
        <route edges="right0B0 B0B1 B1A1 A1A0"/>
    </vehicle>
    <vehicle id="153" depart="64.20">
        <route edges="bottom0A0 A0A1 A1B1 B1B0"/>
    </vehicle>
    <vehicle id="154" depart="64.60">
        <route edges="top1B1 B1A1 A1left1"/>
    </vehicle>
    <vehicle id="155" depart="66.20">
        <route edges="bottom1B0 B0B1 B1A1"/>
    </vehicle>
    <vehicle id="156" depart="66.20">
        <route edges="top1B1 B1A1 A1A0 A0B0"/>
    </vehicle>
    <vehicle id="158" depart="66.60">
        <route edges="A1B1 B1top1"/>
    </vehicle>
    <vehicle id="159" depart="67.00">
        <route edges="A1B1 B1B0 B0A0 A0A1 A1left1"/>
    </vehicle>
    <vehicle id="161" depart="67.60">
        <route edges="left0A0 A0A1 A1B1"/>
    </vehicle>
    <vehicle id="163" depart="68.00">
        <route edges="A0B0 B0B1 B1right1"/>
    </vehicle>
    <vehicle id="164" depart="68.20">
        <route edges="A1A0 A0B0 B0B1 B1top1"/>
    </vehicle>
    <vehicle id="165" depart="68.40">
        <route edges="A0A1 A1B1 B1right1"/>
    </vehicle>
    <vehicle id="167" depart="68.60">
        <route edges="top1B1 B1A1 A1A0 A0B0 B0B1"/>
    </vehicle>
    <vehicle id="168" depart="70.00">
        <route edges="B0B1 B1A1 A1A0 A0bottom0"/>
    </vehicle>
    <vehicle id="169" depart="70.20">
        <route edges="right0B0 B0A0 A0A1 A1top0"/>
    </vehicle>
    <vehicle id="170" depart="70.40">
        <route edges="A1A0 A0left0"/>
    </vehicle>
    <vehicle id="171" depart="71.60">
        <route edges="bottom1B0 B0A0"/>
    </vehicle>
    <vehicle id="172" depart="71.80">
        <route edges="B1B0"/>
    </vehicle>
    <vehicle id="174" depart="72.60">
        <route edges="B1B0 B0A0 A0A1 A1B1 B1right1"/>
    </vehicle>
    <vehicle id="175" depart="73.60">
        <route edges="A0B0 B0B1 B1A1 A1A0 A0left0"/>
    </vehicle>
    <vehicle id="177" depart="73.60">
        <route edges="left1A1 A1B1 B1B0 B0right0"/>
    </vehicle>
    <vehicle id="178" depart="73.80">
        <route edges="bottom1B0 B0A0 A0left0"/>
    </vehicle>
    <vehicle id="179" depart="74.20">
        <route edges="top1B1 B1B0"/>
    </vehicle>
    <vehicle id="180" depart="74.80">
        <route edges="A1B1 B1B0 B0A0 A0A1 A1top0"/>
    </vehicle>
    <vehicle id="181" depart="75.00">
        <route edges="B1B0 B0A0 A0bottom0"/>
    </vehicle>
    <vehicle id="183" depart="75.20">
        <route edges="A1B1 B1top1"/>
    </vehicle>
    <vehicle id="184" depart="75.40">
        <route edges="right0B0 B0B1 B1A1 A1A0 A0B0"/>
    </vehicle>
    <vehicle id="185" depart="75.80">
        <route edges="A0A1 A1B1 B1B0 B0A0 A0left0"/>
    </vehicle>
    <vehicle id="186" depart="77.00">
        <route edges="bottom0A0 A0B0 B0B1 B1A1 A1A0"/>
    </vehicle>
    <vehicle id="187" depart="77.80">
        <route edges="top1B1 B1right1"/>
    </vehicle>
    <vehicle id="188" depart="78.00">
        <route edges="left1A1 A1A0 A0bottom0"/>
    </vehicle>
    <vehicle id="189" depart="78.20">
        <route edges="B1B0 B0A0 A0A1 A1B1"/>
    </vehicle>
    <vehicle id="191" depart="79.00">
        <route edges="B1A1 A1A0 A0bottom0"/>
    </vehicle>
    <vehicle id="192" depart="79.00">
        <route edges="B0B1 B1A1 A1A0"/>
    </vehicle>
    <vehicle id="193" depart="79.00">
        <route edges="bottom1B0 B0B1"/>
    </vehicle>
    <vehicle id="194" depart="79.20">
        <route edges="A0B0 B0B1 B1A1 A1A0"/>
    </vehicle>
    <vehicle id="196" depart="79.40">
        <route edges="B0A0 A0bottom0"/>
    </vehicle>
    <vehicle id="197" depart="79.60">
        <route edges="B1A1 A1A0 A0B0 B0B1 B1top1"/>
    </vehicle>
    <vehicle id="198" depart="79.60">
        <route edges="A0B0 B0B1 B1A1 A1A0 A0left0"/>
    </vehicle>
    <vehicle id="200" depart="80.40">
        <route edges="left1A1 A1B1 B1B0 B0A0 A0A1 A1left1"/>
    </vehicle>
    <vehicle id="201" depart="81.40">
        <route edges="A0A1 A1B1 B1right1"/>
    </vehicle>
    <vehicle id="202" depart="81.60">
        <route edges="B1A1 A1A0 A0B0 B0right0"/>
    </vehicle>
    <vehicle id="203" depart="82.00">
        <route edges="left1A1 A1A0 A0B0"/>
    </vehicle>
    <vehicle id="204" depart="82.00">
        <route edges="right1B1 B1A1"/>
    </vehicle>
    <vehicle id="205" depart="82.20">
        <route edges="B1B0 B0right0"/>
    </vehicle>
    <vehicle id="206" depart="82.40">
        <route edges="B0B1 B1A1 A1A0 A0B0 B0right0"/>
    </vehicle>
    <vehicle id="207" depart="82.80">
        <route edges="B1B0 B0A0"/>
    </vehicle>
    <vehicle id="208" depart="83.00">
        <route edges="A0B0 B0B1 B1top1"/>
    </vehicle>
    <vehicle id="209" depart="83.00">
        <route edges="B1A1 A1A0 A0B0 B0B1 B1right1"/>
    </vehicle>
    <vehicle id="210" depart="83.40">
        <route edges="bottom1B0 B0A0 A0bottom0"/>
    </vehicle>
    <vehicle id="211" depart="83.60">
        <route edges="top1B1 B1A1"/>
    </vehicle>
    <vehicle id="212" depart="84.00">
        <route edges="top0A1 A1B1 B1B0 B0A0 A0A1 A1top0"/>
    </vehicle>
    <vehicle id="213" depart="84.20">
        <route edges="B1B0 B0bottom1"/>
    </vehicle>
    <vehicle id="214" depart="84.80">
        <route edges="bottom0A0 A0B0 B0B1 B1A1 A1A0"/>
    </vehicle>
    <vehicle id="215" depart="84.80">
        <route edges="left0A0 A0B0 B0B1 B1A1 A1A0"/>
    </vehicle>
    <vehicle id="216" depart="85.20">
        <route edges="A0B0"/>
    </vehicle>
    <vehicle id="217" depart="85.80">
        <route edges="right1B1 B1A1 A1A0 A0bottom0"/>
    </vehicle>
    <vehicle id="218" depart="87.00">
        <route edges="right1B1 B1B0"/>
    </vehicle>
    <vehicle id="219" depart="88.20">
        <route edges="bottom1B0 B0A0 A0A1"/>
    </vehicle>
    <vehicle id="220" depart="88.20">
        <route edges="right1B1 B1A1 A1A0 A0bottom0"/>
    </vehicle>
    <vehicle id="221" depart="88.20">
        <route edges="bottom1B0 B0B1 B1top1"/>
    </vehicle>
    <vehicle id="222" depart="88.60">
        <route edges="right0B0 B0B1 B1A1 A1A0 A0B0"/>
    </vehicle>
    <vehicle id="223" depart="89.00">
        <route edges="A1A0 A0B0 B0B1 B1top1"/>
    </vehicle>
    <vehicle id="224" depart="89.60">
        <route edges="bottom0A0 A0B0 B0B1 B1A1"/>
    </vehicle>
    <vehicle id="225" depart="89.80">
        <route edges="top0A1 A1A0 A0B0 B0B1"/>
    </vehicle>
    <vehicle id="226" depart="89.80">
        <route edges="A1B1 B1B0 B0right0"/>
    </vehicle>
    <vehicle id="227" depart="89.80">
        <route edges="B1A1"/>
    </vehicle>
    <vehicle id="229" depart="91.40">
        <route edges="left0A0 A0B0 B0B1"/>
    </vehicle>
    <vehicle id="230" depart="91.60">
        <route edges="B1B0 B0right0"/>
    </vehicle>
    <vehicle id="231" depart="92.00">
        <route edges="right1B1 B1A1 A1top0"/>
    </vehicle>
    <vehicle id="232" depart="92.40">
        <route edges="top1B1 B1A1 A1left1"/>
    </vehicle>
    <vehicle id="233" depart="92.80">
        <route edges="left1A1 A1A0 A0B0 B0B1"/>
    </vehicle>
    <vehicle id="234" depart="93.20">
        <route edges="left0A0 A0B0 B0right0"/>
    </vehicle>
    <vehicle id="235" depart="93.60">
        <route edges="bottom1B0 B0A0 A0bottom0"/>
    </vehicle>
    <vehicle id="239" depart="96.00">
        <route edges="right0B0 B0A0 A0A1 A1B1 B1B0"/>
    </vehicle>
    <vehicle id="240" depart="96.60">
        <route edges="B0A0 A0A1 A1B1 B1top1"/>
    </vehicle>
    <vehicle id="241" depart="96.80">
        <route edges="A0B0 B0B1 B1A1"/>
    </vehicle>
    <vehicle id="242" depart="96.80">
        <route edges="left1A1 A1B1 B1right1"/>
    </vehicle>
    <vehicle id="243" depart="97.00">
        <route edges="top0A1 A1A0 A0left0"/>
    </vehicle>
    <vehicle id="244" depart="97.80">
        <route edges="right1B1 B1B0"/>
    </vehicle>
    <vehicle id="245" depart="98.40">
        <route edges="A1B1 B1B0 B0A0 A0A1 A1left1"/>
    </vehicle>
    <vehicle id="247" depart="99.00">
        <route edges="A1A0 A0B0 B0B1 B1right1"/>
    </vehicle>
    <vehicle id="248" depart="99.20">
        <route edges="B1A1 A1A0 A0bottom0"/>
    </vehicle>
    <vehicle id="249" depart="99.80">
        <route edges="A0B0 B0B1 B1A1 A1A0 A0bottom0"/>
    </vehicle>
</routes>
