<?xml version="1.0" encoding="UTF-8"?>

<!-- generated on 2024-12-11 05:25:39.144753 by randomTrips.py UNKNOWN
<configuration>
    <net-file value="2x2.net.xml"/>
    <route-file value="2x2.rou.xml"/>
    <seed value="45"/>
    <end value="100.0"/>
    <period value="0.4"/>
    <random-depart value="True"/>
</configuration>
-->

<routes xmlns:xsi="http://www.w3.org/2001/XMLSchema-instance" xsi:noNamespaceSchemaLocation="http://sumo.dlr.de/xsd/routes_file.xsd">
    <trip id="0" depart="0.00" from="A1B1" to="A1left1"/>
    <trip id="1" depart="0.80" from="A1B1" to="A0bottom0"/>
    <trip id="2" depart="1.60" from="right0B0" to="A1A0"/>
    <trip id="3" depart="2.20" from="left0A0" to="B1right1"/>
    <trip id="4" depart="2.40" from="top0A1" to="B1B0"/>
    <trip id="5" depart="2.40" from="B1B0" to="B0A0"/>
    <trip id="6" depart="3.60" from="A0A1" to="B0bottom1"/>
    <trip id="7" depart="4.00" from="bottom0A0" to="A1B1"/>
    <trip id="8" depart="4.40" from="right1B1" to="B1A1"/>
    <trip id="9" depart="4.80" from="right0B0" to="A1B1"/>
    <trip id="10" depart="5.20" from="bottom0A0" to="B1A1"/>
    <trip id="11" depart="5.60" from="top0A1" to="A1top0"/>
    <trip id="12" depart="5.80" from="left1A1" to="B0B1"/>
    <trip id="13" depart="6.00" from="A1B1" to="B1B0"/>
    <trip id="14" depart="6.20" from="bottom0A0" to="A0bottom0"/>
    <trip id="15" depart="6.40" from="bottom1B0" to="B1B0"/>
    <trip id="16" depart="7.00" from="A1A0" to="A0bottom0"/>
    <trip id="17" depart="7.00" from="left0A0" to="A0bottom0"/>
    <trip id="18" depart="7.20" from="right0B0" to="B0B1"/>
    <trip id="19" depart="7.60" from="B1B0" to="A1top0"/>
    <trip id="20" depart="8.20" from="top1B1" to="A1A0"/>
    <trip id="21" depart="8.40" from="bottom1B0" to="A1left1"/>
    <trip id="22" depart="9.20" from="top1B1" to="A1left1"/>
    <trip id="23" depart="9.40" from="A0A1" to="A1top0"/>
    <trip id="24" depart="9.40" from="bottom0A0" to="B0right0"/>
    <trip id="25" depart="10.00" from="left0A0" to="B1right1"/>
    <trip id="26" depart="10.20" from="A1B1" to="B0bottom1"/>
    <trip id="27" depart="10.20" from="right1B1" to="B1right1"/>
    <trip id="28" depart="11.20" from="right0B0" to="B0bottom1"/>
    <trip id="29" depart="11.80" from="B1A1" to="B1right1"/>
    <trip id="30" depart="12.00" from="left1A1" to="A1left1"/>
    <trip id="31" depart="12.20" from="top1B1" to="B1right1"/>
    <trip id="32" depart="12.40" from="top1B1" to="B1top1"/>
    <trip id="33" depart="12.80" from="top1B1" to="A1left1"/>
    <trip id="34" depart="12.80" from="B1A1" to="B1top1"/>
    <trip id="35" depart="13.00" from="A0A1" to="B1top1"/>
    <trip id="36" depart="13.00" from="right1B1" to="A0left0"/>
    <trip id="37" depart="13.00" from="left0A0" to="A1left1"/>
    <trip id="38" depart="13.80" from="left1A1" to="B1right1"/>
    <trip id="39" depart="15.40" from="right0B0" to="B1B0"/>
    <trip id="40" depart="15.60" from="B0A0" to="B0A0"/>
    <trip id="41" depart="16.00" from="B1B0" to="B1top1"/>
    <trip id="42" depart="16.00" from="A1B1" to="B0right0"/>
    <trip id="43" depart="16.20" from="left0A0" to="A1B1"/>
    <trip id="44" depart="16.40" from="top0A1" to="B1right1"/>
    <trip id="45" depart="17.40" from="B0A0" to="A1B1"/>
    <trip id="46" depart="17.60" from="left0A0" to="A0bottom0"/>
    <trip id="47" depart="17.80" from="B0A0" to="A0B0"/>
    <trip id="48" depart="18.20" from="left1A1" to="A1top0"/>
    <trip id="49" depart="18.60" from="A0B0" to="B1B0"/>
    <trip id="50" depart="18.60" from="bottom0A0" to="B0bottom1"/>
    <trip id="51" depart="18.80" from="A1B1" to="B0bottom1"/>
    <trip id="52" depart="19.00" from="B0B1" to="B1top1"/>
    <trip id="53" depart="20.00" from="A0B0" to="A0A1"/>
    <trip id="54" depart="20.60" from="B1A1" to="A0bottom0"/>
    <trip id="55" depart="21.60" from="A1A0" to="B1A1"/>
    <trip id="56" depart="22.00" from="bottom0A0" to="B0right0"/>
    <trip id="57" depart="23.40" from="A1A0" to="B0bottom1"/>
    <trip id="58" depart="23.40" from="right0B0" to="A0B0"/>
    <trip id="59" depart="24.20" from="A1A0" to="A1top0"/>
    <trip id="60" depart="24.20" from="B0B1" to="B1B0"/>
    <trip id="61" depart="24.40" from="bottom0A0" to="A1top0"/>
    <trip id="62" depart="25.80" from="B1A1" to="A0bottom0"/>
    <trip id="63" depart="26.00" from="A1A0" to="A1A0"/>
    <trip id="64" depart="26.60" from="A0A1" to="A0bottom0"/>
    <trip id="65" depart="27.80" from="bottom1B0" to="B0A0"/>
    <trip id="66" depart="28.20" from="B1B0" to="B0A0"/>
    <trip id="67" depart="28.40" from="bottom1B0" to="B1top1"/>
    <trip id="68" depart="28.80" from="bottom0A0" to="B1A1"/>
    <trip id="69" depart="28.80" from="B0A0" to="B1A1"/>
    <trip id="70" depart="28.80" from="bottom0A0" to="B1B0"/>
    <trip id="71" depart="29.40" from="top1B1" to="A0left0"/>
    <trip id="72" depart="30.20" from="top0A1" to="B0bottom1"/>
    <trip id="73" depart="30.60" from="top0A1" to="A0A1"/>
    <trip id="74" depart="30.80" from="right1B1" to="B0right0"/>
    <trip id="75" depart="31.00" from="right1B1" to="A1A0"/>
    <trip id="76" depart="31.20" from="B0B1" to="B0bottom1"/>
    <trip id="77" depart="32.00" from="B0B1" to="B0A0"/>
    <trip id="78" depart="32.60" from="right1B1" to="A1left1"/>
    <trip id="79" depart="33.20" from="top1B1" to="B1right1"/>
    <trip id="80" depart="33.40" from="left1A1" to="B1B0"/>
    <trip id="81" depart="33.60" from="A0A1" to="B0B1"/>
    <trip id="82" depart="34.00" from="top0A1" to="A1B1"/>
    <trip id="83" depart="34.20" from="bottom1B0" to="A0B0"/>
    <trip id="84" depart="34.40" from="right0B0" to="A0left0"/>
    <trip id="85" depart="34.40" from="top1B1" to="B0B1"/>
    <trip id="86" depart="34.60" from="A0A1" to="B0A0"/>
    <trip id="87" depart="35.40" from="A1A0" to="A1B1"/>
    <trip id="88" depart="36.00" from="left0A0" to="A0B0"/>
    <trip id="89" depart="36.00" from="right1B1" to="B0right0"/>
    <trip id="90" depart="36.00" from="left0A0" to="A1B1"/>
    <trip id="91" depart="36.00" from="A0B0" to="B0A0"/>
    <trip id="92" depart="36.80" from="left0A0" to="B1top1"/>
    <trip id="93" depart="37.40" from="left0A0" to="B0right0"/>
    <trip id="94" depart="38.00" from="B1B0" to="A0left0"/>
    <trip id="95" depart="38.40" from="bottom0A0" to="B1right1"/>
    <trip id="96" depart="39.00" from="bottom0A0" to="A0A1"/>
    <trip id="97" depart="39.00" from="left0A0" to="B1B0"/>
    <trip id="98" depart="40.60" from="B1B0" to="B0bottom1"/>
    <trip id="99" depart="41.80" from="A1A0" to="B0bottom1"/>
    <trip id="100" depart="42.20" from="bottom0A0" to="B1A1"/>
    <trip id="101" depart="43.40" from="B1B0" to="A1top0"/>
    <trip id="102" depart="43.60" from="B1B0" to="B1right1"/>
    <trip id="103" depart="43.60" from="top1B1" to="B0A0"/>
    <trip id="104" depart="43.80" from="A1B1" to="B0right0"/>
    <trip id="105" depart="43.80" from="B0A0" to="B1right1"/>
    <trip id="106" depart="44.60" from="A0B0" to="A1left1"/>
    <trip id="107" depart="45.00" from="top0A1" to="A0A1"/>
    <trip id="108" depart="45.20" from="right1B1" to="B0B1"/>
    <trip id="109" depart="45.60" from="left1A1" to="A0B0"/>
    <trip id="110" depart="45.60" from="left1A1" to="B1top1"/>
    <trip id="111" depart="46.40" from="A0A1" to="A0left0"/>
    <trip id="112" depart="46.60" from="right1B1" to="B1A1"/>
    <trip id="113" depart="48.20" from="bottom1B0" to="B1top1"/>
    <trip id="114" depart="48.20" from="bottom1B0" to="A0left0"/>
    <trip id="115" depart="48.60" from="right0B0" to="A1A0"/>
    <trip id="116" depart="48.80" from="A1B1" to="A1A0"/>
    <trip id="117" depart="49.40" from="A1A0" to="A0left0"/>
    <trip id="118" depart="50.20" from="right0B0" to="A1top0"/>
    <trip id="119" depart="50.40" from="A0A1" to="B1top1"/>
    <trip id="120" depart="50.80" from="A1A0" to="A1A0"/>
    <trip id="121" depart="51.20" from="bottom0A0" to="A1B1"/>
    <trip id="122" depart="51.60" from="top0A1" to="B1B0"/>
    <trip id="123" depart="52.00" from="top0A1" to="A1top0"/>
    <trip id="124" depart="52.00" from="A0B0" to="A1A0"/>
    <trip id="125" depart="52.20" from="A1A0" to="A0A1"/>
    <trip id="126" depart="52.20" from="B1A1" to="A1A0"/>
    <trip id="127" depart="52.40" from="A1B1" to="A0A1"/>
    <trip id="128" depart="52.60" from="A1B1" to="B1top1"/>
    <trip id="129" depart="52.80" from="B0B1" to="B0right0"/>
    <trip id="130" depart="53.40" from="B1A1" to="A1B1"/>
    <trip id="131" depart="53.60" from="B1A1" to="A1top0"/>
    <trip id="132" depart="53.80" from="B1A1" to="B1right1"/>
    <trip id="133" depart="54.80" from="A0B0" to="B1B0"/>
    <trip id="134" depart="55.80" from="left1A1" to="B1B0"/>
    <trip id="135" depart="56.00" from="right0B0" to="B1B0"/>
    <trip id="136" depart="56.20" from="A0B0" to="A1B1"/>
    <trip id="137" depart="56.60" from="bottom1B0" to="B1B0"/>
    <trip id="138" depart="57.40" from="A0A1" to="A1B1"/>
    <trip id="139" depart="57.60" from="A1B1" to="A1A0"/>
    <trip id="140" depart="57.60" from="right0B0" to="B0B1"/>
    <trip id="141" depart="57.80" from="top1B1" to="B0B1"/>
    <trip id="142" depart="57.80" from="A0A1" to="A1A0"/>
    <trip id="143" depart="58.20" from="B0B1" to="A0B0"/>
    <trip id="144" depart="58.40" from="right0B0" to="B1top1"/>
    <trip id="145" depart="58.80" from="top0A1" to="A0A1"/>
    <trip id="146" depart="59.00" from="right1B1" to="B1top1"/>
    <trip id="147" depart="59.20" from="A1B1" to="A0left0"/>
    <trip id="148" depart="59.20" from="A1B1" to="A1left1"/>
    <trip id="149" depart="60.40" from="right1B1" to="B1B0"/>
    <trip id="150" depart="62.80" from="A0B0" to="A0B0"/>
    <trip id="151" depart="63.40" from="right0B0" to="B1B0"/>
    <trip id="152" depart="63.80" from="right0B0" to="A1A0"/>
    <trip id="153" depart="64.20" from="bottom0A0" to="B1B0"/>
    <trip id="154" depart="64.60" from="top1B1" to="A1left1"/>
    <trip id="155" depart="66.20" from="bottom1B0" to="B1A1"/>
    <trip id="156" depart="66.20" from="top1B1" to="A0B0"/>
    <trip id="157" depart="66.20" from="A0B0" to="A1B1"/>
    <trip id="158" depart="66.60" from="A1B1" to="B1top1"/>
    <trip id="159" depart="67.00" from="A1B1" to="A1left1"/>
    <trip id="160" depart="67.20" from="B0A0" to="B1A1"/>
    <trip id="161" depart="67.60" from="left0A0" to="A1B1"/>
    <trip id="162" depart="68.00" from="A1B1" to="B1A1"/>
    <trip id="163" depart="68.00" from="A0B0" to="B1right1"/>
    <trip id="164" depart="68.20" from="A1A0" to="B1top1"/>
    <trip id="165" depart="68.40" from="A0A1" to="B1right1"/>
    <trip id="166" depart="68.40" from="B0B1" to="A0A1"/>
    <trip id="167" depart="68.60" from="top1B1" to="B0B1"/>
    <trip id="168" depart="70.00" from="B0B1" to="A0bottom0"/>
    <trip id="169" depart="70.20" from="right0B0" to="A1top0"/>
    <trip id="170" depart="70.40" from="A1A0" to="A0left0"/>
    <trip id="171" depart="71.60" from="bottom1B0" to="B0A0"/>
    <trip id="172" depart="71.80" from="B1B0" to="B1B0"/>
    <trip id="173" depart="72.20" from="B1B0" to="A0B0"/>
    <trip id="174" depart="72.60" from="B1B0" to="B1right1"/>
    <trip id="175" depart="73.60" from="A0B0" to="A0left0"/>
    <trip id="176" depart="73.60" from="B1B0" to="A0B0"/>
    <trip id="177" depart="73.60" from="left1A1" to="B0right0"/>
    <trip id="178" depart="73.80" from="bottom1B0" to="A0left0"/>
    <trip id="179" depart="74.20" from="top1B1" to="B1B0"/>
    <trip id="180" depart="74.80" from="A1B1" to="A1top0"/>
    <trip id="181" depart="75.00" from="B1B0" to="A0bottom0"/>
    <trip id="182" depart="75.00" from="A0A1" to="A0B0"/>
    <trip id="183" depart="75.20" from="A1B1" to="B1top1"/>
    <trip id="184" depart="75.40" from="right0B0" to="A0B0"/>
    <trip id="185" depart="75.80" from="A0A1" to="A0left0"/>
    <trip id="186" depart="77.00" from="bottom0A0" to="A1A0"/>
    <trip id="187" depart="77.80" from="top1B1" to="B1right1"/>
    <trip id="188" depart="78.00" from="left1A1" to="A0bottom0"/>
    <trip id="189" depart="78.20" from="B1B0" to="A1B1"/>
    <trip id="190" depart="78.80" from="A1A0" to="A1B1"/>
    <trip id="191" depart="79.00" from="B1A1" to="A0bottom0"/>
    <trip id="192" depart="79.00" from="B0B1" to="A1A0"/>
    <trip id="193" depart="79.00" from="bottom1B0" to="B0B1"/>
    <trip id="194" depart="79.20" from="A0B0" to="A1A0"/>
    <trip id="195" depart="79.20" from="B0B1" to="A0A1"/>
    <trip id="196" depart="79.40" from="B0A0" to="A0bottom0"/>
    <trip id="197" depart="79.60" from="B1A1" to="B1top1"/>
    <trip id="198" depart="79.60" from="A0B0" to="A0left0"/>
    <trip id="199" depart="79.80" from="A1B1" to="A1A0"/>
    <trip id="200" depart="80.40" from="left1A1" to="A1left1"/>
    <trip id="201" depart="81.40" from="A0A1" to="B1right1"/>
    <trip id="202" depart="81.60" from="B1A1" to="B0right0"/>
    <trip id="203" depart="82.00" from="left1A1" to="A0B0"/>
    <trip id="204" depart="82.00" from="right1B1" to="B1A1"/>
    <trip id="205" depart="82.20" from="B1B0" to="B0right0"/>
    <trip id="206" depart="82.40" from="B0B1" to="B0right0"/>
    <trip id="207" depart="82.80" from="B1B0" to="B0A0"/>
    <trip id="208" depart="83.00" from="A0B0" to="B1top1"/>
    <trip id="209" depart="83.00" from="B1A1" to="B1right1"/>
    <trip id="210" depart="83.40" from="bottom1B0" to="A0bottom0"/>
    <trip id="211" depart="83.60" from="top1B1" to="B1A1"/>
    <trip id="212" depart="84.00" from="top0A1" to="A1top0"/>
    <trip id="213" depart="84.20" from="B1B0" to="B0bottom1"/>
    <trip id="214" depart="84.80" from="bottom0A0" to="A1A0"/>
    <trip id="215" depart="84.80" from="left0A0" to="A1A0"/>
    <trip id="216" depart="85.20" from="A0B0" to="A0B0"/>
    <trip id="217" depart="85.80" from="right1B1" to="A0bottom0"/>
    <trip id="218" depart="87.00" from="right1B1" to="B1B0"/>
    <trip id="219" depart="88.20" from="bottom1B0" to="A0A1"/>
    <trip id="220" depart="88.20" from="right1B1" to="A0bottom0"/>
    <trip id="221" depart="88.20" from="bottom1B0" to="B1top1"/>
    <trip id="222" depart="88.60" from="right0B0" to="A0B0"/>
    <trip id="223" depart="89.00" from="A1A0" to="B1top1"/>
    <trip id="224" depart="89.60" from="bottom0A0" to="B1A1"/>
    <trip id="225" depart="89.80" from="top0A1" to="B0B1"/>
    <trip id="226" depart="89.80" from="A1B1" to="B0right0"/>
    <trip id="227" depart="89.80" from="B1A1" to="B1A1"/>
    <trip id="228" depart="91.20" from="B1B0" to="A1A0"/>
    <trip id="229" depart="91.40" from="left0A0" to="B0B1"/>
    <trip id="230" depart="91.60" from="B1B0" to="B0right0"/>
    <trip id="231" depart="92.00" from="right1B1" to="A1top0"/>
    <trip id="232" depart="92.40" from="top1B1" to="A1left1"/>
    <trip id="233" depart="92.80" from="left1A1" to="B0B1"/>
    <trip id="234" depart="93.20" from="left0A0" to="B0right0"/>
    <trip id="235" depart="93.60" from="bottom1B0" to="A0bottom0"/>
    <trip id="236" depart="93.60" from="A0A1" to="A1A0"/>
    <trip id="237" depart="94.60" from="A1A0" to="B0A0"/>
    <trip id="238" depart="95.80" from="A1A0" to="A0A1"/>
    <trip id="239" depart="96.00" from="right0B0" to="B1B0"/>
    <trip id="240" depart="96.60" from="B0A0" to="B1top1"/>
    <trip id="241" depart="96.80" from="A0B0" to="B1A1"/>
    <trip id="242" depart="96.80" from="left1A1" to="B1right1"/>
    <trip id="243" depart="97.00" from="top0A1" to="A0left0"/>
    <trip id="244" depart="97.80" from="right1B1" to="B1B0"/>
    <trip id="245" depart="98.40" from="A1B1" to="A1left1"/>
    <trip id="246" depart="98.60" from="B1A1" to="A1B1"/>
    <trip id="247" depart="99.00" from="A1A0" to="B1right1"/>
    <trip id="248" depart="99.20" from="B1A1" to="A0bottom0"/>
    <trip id="249" depart="99.80" from="A0B0" to="A0bottom0"/>
</routes>
