<?xml version="1.0" encoding="UTF-8"?>

<!-- generated on 2024-12-11 01:33:56.203432 by randomTrips.py UNKNOWN
<configuration>
    <net-file value="3x3.net.xml"/>
    <route-file value="3x3.rou.xml"/>
    <seed value="45"/>
    <end value="100.0"/>
    <period value="0.2"/>
    <random-depart value="True"/>
</configuration>
-->

<!-- generated on 2024-12-11 01:33:56 by Eclipse SUMO duarouter Version 1.21.0
<duarouterConfiguration xmlns:xsi="http://www.w3.org/2001/XMLSchema-instance" xsi:noNamespaceSchemaLocation="http://sumo.dlr.de/xsd/duarouterConfiguration.xsd">

    <input>
        <net-file value="3x3.net.xml"/>
        <route-files value="trips.trips.xml"/>
    </input>

    <output>
        <output-file value="3x3.rou.xml"/>
        <alternatives-output value="NUL"/>
    </output>

    <time>
        <begin value="0.0"/>
        <end value="100.0"/>
    </time>

    <report>
        <no-warnings value="true"/>
        <ignore-errors value="true"/>
        <no-step-log value="true"/>
    </report>

</duarouterConfiguration>
-->

<routes xmlns:xsi="http://www.w3.org/2001/XMLSchema-instance" xsi:noNamespaceSchemaLocation="http://sumo.dlr.de/xsd/routes_file.xsd">
    <vehicle id="0" depart="0.00">
        <route edges="top0A2 A2B2 B2B1 B1B0 B0bottom1"/>
    </vehicle>
    <vehicle id="1" depart="0.40">
        <route edges="right2C2 C2B2 B2A2 A2top0"/>
    </vehicle>
    <vehicle id="2" depart="0.60">
        <route edges="A0A1 A1B1 B1C1 C1C0 C0right0"/>
    </vehicle>
    <vehicle id="3" depart="0.80">
        <route edges="A1B1 B1B0 B0A0 A0A1 A1left1"/>
    </vehicle>
    <vehicle id="4" depart="1.40">
        <route edges="C1B1 B1B2 B2C2 C2top2"/>
    </vehicle>
    <vehicle id="5" depart="1.60">
        <route edges="A0A1 A1B1 B1B0 B0A0 A0bottom0"/>
    </vehicle>
    <vehicle id="6" depart="1.80">
        <route edges="B2B1 B1A1 A1left1"/>
    </vehicle>
    <vehicle id="7" depart="2.00">
        <route edges="B0C0 C0C1 C1C2 C2B2 B2A2 A2A1"/>
    </vehicle>
    <vehicle id="8" depart="2.20">
        <route edges="A1A0 A0B0 B0C0 C0C1 C1B1"/>
    </vehicle>
    <vehicle id="9" depart="2.20">
        <route edges="C0B0 B0A0 A0left0"/>
    </vehicle>
    <vehicle id="10" depart="2.40">
        <route edges="C0C1 C1B1 B1B2 B2C2 C2C1"/>
    </vehicle>
    <vehicle id="11" depart="2.60">
        <route edges="C1B1 B1B2 B2C2 C2C1 C1right1"/>
    </vehicle>
    <vehicle id="12" depart="2.60">
        <route edges="C1B1 B1B0 B0C0 C0C1 C1C2"/>
    </vehicle>
    <vehicle id="13" depart="2.80">
        <route edges="B1A1 A1A2 A2B2 B2B1 B1C1 C1C2"/>
    </vehicle>
    <vehicle id="14" depart="2.80">
        <route edges="left1A1 A1A2 A2top0"/>
    </vehicle>
    <vehicle id="15" depart="3.20">
        <route edges="C1C2 C2B2 B2A2 A2A1 A1B1 B1B2"/>
    </vehicle>
    <vehicle id="16" depart="3.80">
        <route edges="right1C1 C1C0 C0bottom2"/>
    </vehicle>
    <vehicle id="17" depart="4.00">
        <route edges="B2A2 A2A1 A1B1 B1B2 B2C2"/>
    </vehicle>
    <vehicle id="18" depart="4.20">
        <route edges="B1C1 C1C2 C2B2 B2B1"/>
    </vehicle>
    <vehicle id="19" depart="4.20">
        <route edges="A2B2 B2B1 B1A1 A1A2 A2left2"/>
    </vehicle>
    <vehicle id="20" depart="4.40">
        <route edges="top0A2 A2A1 A1A0 A0bottom0"/>
    </vehicle>
    <vehicle id="21" depart="4.80">
        <route edges="right1C1 C1B1 B1B2 B2C2"/>
    </vehicle>
    <vehicle id="22" depart="5.00">
        <route edges="C2C1 C1B1 B1B2 B2A2 A2A1"/>
    </vehicle>
    <vehicle id="23" depart="5.40">
        <route edges="top2C2 C2C1 C1B1"/>
    </vehicle>
    <vehicle id="24" depart="5.40">
        <route edges="right2C2 C2B2 B2B1 B1C1"/>
    </vehicle>
    <vehicle id="25" depart="5.40">
        <route edges="C0B0 B0B1 B1B2 B2C2 C2top2"/>
    </vehicle>
    <vehicle id="26" depart="5.40">
        <route edges="C1C2 C2B2 B2A2 A2A1 A1left1"/>
    </vehicle>
    <vehicle id="27" depart="5.60">
        <route edges="B1A1 A1A2 A2B2 B2C2 C2C1 C1C0"/>
    </vehicle>
    <vehicle id="28" depart="5.80">
        <route edges="C2C1 C1B1 B1B2 B2C2"/>
    </vehicle>
    <vehicle id="29" depart="5.80">
        <route edges="B0C0 C0C1 C1C2"/>
    </vehicle>
    <vehicle id="30" depart="6.00">
        <route edges="B0B1 B1B2 B2C2 C2C1"/>
    </vehicle>
    <vehicle id="31" depart="6.20">
        <route edges="C2B2 B2B1 B1B0 B0C0 C0C1"/>
    </vehicle>
    <vehicle id="32" depart="6.40">
        <route edges="left0A0 A0A1 A1left1"/>
    </vehicle>
    <vehicle id="33" depart="6.60">
        <route edges="B0A0 A0A1 A1B1 B1C1 C1C2"/>
    </vehicle>
    <vehicle id="34" depart="6.80">
        <route edges="top2C2 C2C1 C1B1 B1B2"/>
    </vehicle>
    <vehicle id="35" depart="7.00">
        <route edges="left1A1 A1A2 A2B2 B2B1"/>
    </vehicle>
    <vehicle id="36" depart="7.00">
        <route edges="B0A0 A0A1 A1B1 B1C1 C1C0 C0right0"/>
    </vehicle>
    <vehicle id="37" depart="7.40">
        <route edges="top2C2 C2C1 C1B1 B1A1 A1left1"/>
    </vehicle>
    <vehicle id="38" depart="7.60">
        <route edges="A0B0 B0B1 B1B2 B2A2 A2A1 A1B1"/>
    </vehicle>
    <vehicle id="39" depart="7.80">
        <route edges="B1C1 C1C0 C0B0 B0A0 A0A1 A1left1"/>
    </vehicle>
    <vehicle id="40" depart="7.80">
        <route edges="bottom1B0 B0A0 A0A1 A1A2"/>
    </vehicle>
    <vehicle id="41" depart="8.20">
        <route edges="top1B2 B2B1"/>
    </vehicle>
    <vehicle id="42" depart="8.60">
        <route edges="B1A1 A1A0 A0B0 B0B1 B1B2"/>
    </vehicle>
    <vehicle id="43" depart="8.60">
        <route edges="C0B0 B0B1 B1B2 B2C2 C2top2"/>
    </vehicle>
    <vehicle id="44" depart="8.80">
        <route edges="A1A0 A0B0 B0B1 B1B2 B2A2 A2left2"/>
    </vehicle>
    <vehicle id="45" depart="8.80">
        <route edges="B1B2 B2A2 A2top0"/>
    </vehicle>
    <vehicle id="46" depart="8.80">
        <route edges="A0A1 A1B1 B1C1 C1C0 C0bottom2"/>
    </vehicle>
    <vehicle id="47" depart="9.20">
        <route edges="A2B2 B2B1 B1C1 C1C2"/>
    </vehicle>
    <vehicle id="48" depart="9.20">
        <route edges="B2A2 A2A1 A1B1 B1C1 C1C2 C2top2"/>
    </vehicle>
    <vehicle id="49" depart="9.20">
        <route edges="A1B1 B1C1 C1C0 C0right0"/>
    </vehicle>
    <vehicle id="50" depart="9.60">
        <route edges="C1C2 C2B2 B2A2 A2A1"/>
    </vehicle>
    <vehicle id="51" depart="10.00">
        <route edges="B1B2 B2C2 C2C1 C1right1"/>
    </vehicle>
    <vehicle id="52" depart="10.40">
        <route edges="A1A2 A2B2 B2B1 B1C1"/>
    </vehicle>
    <vehicle id="53" depart="10.60">
        <route edges="bottom0A0 A0B0 B0C0 C0right0"/>
    </vehicle>
    <vehicle id="54" depart="10.60">
        <route edges="C2B2 B2B1 B1B0 B0A0"/>
    </vehicle>
    <vehicle id="55" depart="11.00">
        <route edges="A0B0 B0B1 B1A1"/>
    </vehicle>
    <vehicle id="56" depart="11.40">
        <route edges="top2C2 C2C1 C1C0 C0B0 B0B1"/>
    </vehicle>
    <vehicle id="57" depart="11.60">
        <route edges="A1A0 A0B0 B0C0 C0C1 C1C2"/>
    </vehicle>
    <vehicle id="58" depart="11.80">
        <route edges="left0A0 A0B0 B0C0"/>
    </vehicle>
    <vehicle id="59" depart="12.00">
        <route edges="bottom0A0 A0A1 A1B1"/>
    </vehicle>
    <vehicle id="60" depart="12.20">
        <route edges="A0A1 A1A2 A2B2 B2B1 B1A1 A1A0 A0B0"/>
    </vehicle>
    <vehicle id="61" depart="12.40">
        <route edges="left1A1 A1B1 B1C1 C1C0 C0B0"/>
    </vehicle>
    <vehicle id="62" depart="12.40">
        <route edges="B1B0 B0C0 C0C1 C1C2 C2B2"/>
    </vehicle>
    <vehicle id="63" depart="12.40">
        <route edges="C2B2 B2B1 B1A1 A1A2 A2B2"/>
    </vehicle>
    <vehicle id="64" depart="12.60">
        <route edges="A0B0 B0B1 B1B2 B2C2 C2C1"/>
    </vehicle>
    <vehicle id="65" depart="12.60">
        <route edges="C0B0 B0B1 B1B2 B2A2"/>
    </vehicle>
    <vehicle id="66" depart="13.00">
        <route edges="A0A1 A1B1 B1B2"/>
    </vehicle>
    <vehicle id="67" depart="13.00">
        <route edges="B2B1 B1A1 A1A2"/>
    </vehicle>
    <vehicle id="68" depart="13.00">
        <route edges="C0B0 B0A0 A0bottom0"/>
    </vehicle>
    <vehicle id="69" depart="13.20">
        <route edges="right2C2 C2C1 C1B1 B1B2"/>
    </vehicle>
    <vehicle id="70" depart="13.20">
        <route edges="C1B1 B1B0 B0A0"/>
    </vehicle>
    <vehicle id="71" depart="13.40">
        <route edges="A2A1 A1B1 B1B0 B0A0 A0A1 A1A2"/>
    </vehicle>
    <vehicle id="72" depart="13.40">
        <route edges="A2B2 B2top1"/>
    </vehicle>
    <vehicle id="73" depart="14.40">
        <route edges="A2B2 B2C2 C2C1 C1C0 C0B0"/>
    </vehicle>
    <vehicle id="74" depart="15.20">
        <route edges="left2A2 A2B2 B2B1 B1B0"/>
    </vehicle>
    <vehicle id="75" depart="15.20">
        <route edges="A1A2 A2B2 B2B1"/>
    </vehicle>
    <vehicle id="76" depart="15.40">
        <route edges="left2A2 A2A1 A1B1 B1B2 B2A2"/>
    </vehicle>
    <vehicle id="77" depart="15.80">
        <route edges="A2B2 B2C2 C2C1 C1B1"/>
    </vehicle>
    <vehicle id="78" depart="15.80">
        <route edges="A2B2 B2C2 C2C1 C1C0 C0B0"/>
    </vehicle>
    <vehicle id="79" depart="15.80">
        <route edges="C0C1 C1B1 B1B0 B0A0"/>
    </vehicle>
    <vehicle id="80" depart="16.00">
        <route edges="A2B2 B2B1 B1B0"/>
    </vehicle>
    <vehicle id="81" depart="16.00">
        <route edges="B0C0 C0C1 C1B1 B1A1 A1left1"/>
    </vehicle>
    <vehicle id="82" depart="16.20">
        <route edges="top1B2 B2B1 B1B0 B0C0 C0C1"/>
    </vehicle>
    <vehicle id="83" depart="16.20">
        <route edges="A1A0 A0B0 B0B1 B1B2 B2A2 A2A1 A1B1"/>
    </vehicle>
    <vehicle id="84" depart="16.20">
        <route edges="A1A0 A0B0 B0B1 B1C1 C1C0 C0B0 B0A0 A0A1"/>
    </vehicle>
    <vehicle id="85" depart="16.60">
        <route edges="A1A0 A0B0 B0C0 C0C1 C1B1 B1B0"/>
    </vehicle>
    <vehicle id="86" depart="16.80">
        <route edges="A1A0 A0B0 B0B1 B1A1 A1left1"/>
    </vehicle>
    <vehicle id="87" depart="17.20">
        <route edges="A1A0 A0B0 B0B1 B1B2 B2A2 A2A1 A1B1"/>
    </vehicle>
    <vehicle id="88" depart="17.40">
        <route edges="B1B2 B2C2 C2C1"/>
    </vehicle>
    <vehicle id="89" depart="17.60">
        <route edges="C2B2 B2A2"/>
    </vehicle>
    <vehicle id="90" depart="17.80">
        <route edges="left1A1 A1A2 A2left2"/>
    </vehicle>
    <vehicle id="91" depart="17.80">
        <route edges="C1C2 C2B2 B2B1 B1B0"/>
    </vehicle>
    <vehicle id="92" depart="18.40">
        <route edges="B0B1 B1A1 A1A0 A0B0 B0C0"/>
    </vehicle>
    <vehicle id="93" depart="18.40">
        <route edges="top2C2 C2C1 C1B1 B1B0 B0C0"/>
    </vehicle>
    <vehicle id="94" depart="18.60">
        <route edges="left0A0 A0B0 B0B1 B1B2 B2A2"/>
    </vehicle>
    <vehicle id="95" depart="18.80">
        <route edges="top1B2 B2B1 B1B0 B0A0 A0bottom0"/>
    </vehicle>
    <vehicle id="96" depart="18.80">
        <route edges="top0A2 A2A1 A1A0"/>
    </vehicle>
    <vehicle id="97" depart="18.80">
        <route edges="left2A2 A2B2 B2B1 B1B0 B0C0 C0C1"/>
    </vehicle>
    <vehicle id="98" depart="19.00">
        <route edges="A1B1 B1B0"/>
    </vehicle>
    <vehicle id="99" depart="19.80">
        <route edges="left0A0 A0B0 B0C0 C0C1 C1C2 C2B2"/>
    </vehicle>
    <vehicle id="100" depart="20.00">
        <route edges="B2B1 B1A1 A1A2 A2B2 B2C2 C2C1"/>
    </vehicle>
    <vehicle id="101" depart="20.00">
        <route edges="B2A2 A2A1 A1B1 B1C1 C1C2 C2B2 B2B1"/>
    </vehicle>
    <vehicle id="102" depart="20.60">
        <route edges="B1B2 B2A2 A2A1"/>
    </vehicle>
    <vehicle id="103" depart="20.80">
        <route edges="B0A0 A0A1 A1A2 A2B2"/>
    </vehicle>
    <vehicle id="104" depart="21.00">
        <route edges="top0A2 A2B2 B2C2 C2top2"/>
    </vehicle>
    <vehicle id="105" depart="21.20">
        <route edges="C2C1 C1C0 C0B0 B0A0 A0left0"/>
    </vehicle>
    <vehicle id="106" depart="21.60">
        <route edges="top2C2 C2B2 B2B1 B1C1 C1C2"/>
    </vehicle>
    <vehicle id="107" depart="21.80">
        <route edges="right0C0 C0B0 B0A0 A0A1 A1A2 A2left2"/>
    </vehicle>
    <vehicle id="108" depart="22.00">
        <route edges="A0A1 A1A2 A2B2 B2C2 C2right2"/>
    </vehicle>
    <vehicle id="109" depart="22.20">
        <route edges="C1B1 B1B0 B0C0"/>
    </vehicle>
    <vehicle id="110" depart="22.40">
        <route edges="C2B2 B2A2"/>
    </vehicle>
    <vehicle id="111" depart="22.80">
        <route edges="left0A0 A0A1 A1B1 B1B0"/>
    </vehicle>
    <vehicle id="112" depart="23.00">
        <route edges="C2B2 B2B1"/>
    </vehicle>
    <vehicle id="113" depart="23.00">
        <route edges="bottom1B0 B0A0"/>
    </vehicle>
    <vehicle id="114" depart="23.20">
        <route edges="left2A2 A2B2 B2top1"/>
    </vehicle>
    <vehicle id="115" depart="23.20">
        <route edges="bottom1B0 B0B1 B1B2 B2A2"/>
    </vehicle>
    <vehicle id="116" depart="23.80">
        <route edges="B2B1 B1A1 A1A2 A2left2"/>
    </vehicle>
    <vehicle id="117" depart="24.20">
        <route edges="bottom0A0 A0B0"/>
    </vehicle>
    <vehicle id="118" depart="24.20">
        <route edges="B0C0 C0C1 C1B1 B1A1 A1A0"/>
    </vehicle>
    <vehicle id="119" depart="24.40">
        <route edges="C2B2 B2B1 B1C1 C1right1"/>
    </vehicle>
    <vehicle id="120" depart="24.60">
        <route edges="B0A0 A0A1 A1B1 B1C1 C1C0 C0B0"/>
    </vehicle>
    <vehicle id="121" depart="24.60">
        <route edges="B1B2 B2A2"/>
    </vehicle>
    <vehicle id="122" depart="25.00">
        <route edges="A0B0 B0C0 C0C1 C1B1 B1B0"/>
    </vehicle>
    <vehicle id="123" depart="25.00">
        <route edges="B0C0 C0C1 C1C2 C2B2 B2A2"/>
    </vehicle>
    <vehicle id="124" depart="25.00">
        <route edges="B1A1 A1A2 A2B2 B2C2 C2top2"/>
    </vehicle>
    <vehicle id="125" depart="25.40">
        <route edges="A0B0 B0C0 C0right0"/>
    </vehicle>
    <vehicle id="126" depart="25.60">
        <route edges="C2C1 C1C0 C0B0 B0A0 A0A1"/>
    </vehicle>
    <vehicle id="127" depart="25.80">
        <route edges="C1B1 B1B2 B2A2 A2A1"/>
    </vehicle>
    <vehicle id="128" depart="26.00">
        <route edges="left1A1 A1B1 B1B0"/>
    </vehicle>
    <vehicle id="129" depart="26.80">
        <route edges="A2A1 A1B1"/>
    </vehicle>
    <vehicle id="130" depart="27.00">
        <route edges="B0C0 C0C1 C1B1 B1B0 B0A0"/>
    </vehicle>
    <vehicle id="131" depart="27.20">
        <route edges="right2C2 C2C1 C1right1"/>
    </vehicle>
    <vehicle id="132" depart="27.40">
        <route edges="A2B2 B2C2 C2right2"/>
    </vehicle>
    <vehicle id="133" depart="27.40">
        <route edges="C0B0 B0B1"/>
    </vehicle>
    <vehicle id="134" depart="28.00">
        <route edges="top0A2 A2B2 B2B1 B1B0"/>
    </vehicle>
    <vehicle id="135" depart="28.20">
        <route edges="A1A0 A0B0 B0C0"/>
    </vehicle>
    <vehicle id="136" depart="28.20">
        <route edges="A1A2 A2B2 B2C2 C2C1 C1C0 C0B0"/>
    </vehicle>
    <vehicle id="137" depart="28.40">
        <route edges="top2C2 C2C1 C1C0 C0right0"/>
    </vehicle>
    <vehicle id="138" depart="28.40">
        <route edges="right2C2 C2C1 C1C0 C0B0 B0A0 A0A1"/>
    </vehicle>
    <vehicle id="139" depart="28.40">
        <route edges="B2A2 A2A1 A1B1 B1B0 B0A0 A0A1"/>
    </vehicle>
    <vehicle id="140" depart="28.40">
        <route edges="C1C2 C2B2 B2A2 A2A1 A1A0 A0bottom0"/>
    </vehicle>
    <vehicle id="141" depart="28.60">
        <route edges="C0C1 C1B1 B1B2 B2top1"/>
    </vehicle>
    <vehicle id="142" depart="28.80">
        <route edges="left2A2 A2B2 B2top1"/>
    </vehicle>
    <vehicle id="143" depart="29.20">
        <route edges="C0C1 C1B1"/>
    </vehicle>
    <vehicle id="144" depart="29.20">
        <route edges="B0A0 A0A1 A1A2 A2B2 B2C2 C2right2"/>
    </vehicle>
    <vehicle id="145" depart="29.40">
        <route edges="A2B2 B2B1 B1B0 B0C0"/>
    </vehicle>
    <vehicle id="146" depart="29.60">
        <route edges="A1B1 B1B0 B0A0"/>
    </vehicle>
    <vehicle id="147" depart="29.60">
        <route edges="C1C2 C2B2 B2A2 A2top0"/>
    </vehicle>
    <vehicle id="148" depart="29.60">
        <route edges="B1A1 A1A0 A0B0 B0B1 B1B2 B2A2 A2A1"/>
    </vehicle>
    <vehicle id="149" depart="29.60">
        <route edges="right1C1 C1C2 C2B2 B2B1"/>
    </vehicle>
    <vehicle id="150" depart="30.00">
        <route edges="right0C0 C0B0 B0B1 B1B2 B2A2 A2A1"/>
    </vehicle>
    <vehicle id="151" depart="30.00">
        <route edges="B1B0 B0A0 A0A1 A1A2 A2left2"/>
    </vehicle>
    <vehicle id="152" depart="30.00">
        <route edges="right2C2 C2B2 B2A2"/>
    </vehicle>
    <vehicle id="153" depart="30.40">
        <route edges="C1C2 C2B2 B2B1 B1B0 B0C0 C0C1 C1B1"/>
    </vehicle>
    <vehicle id="154" depart="30.60">
        <route edges="C1C2 C2B2 B2B1 B1B0 B0bottom1"/>
    </vehicle>
    <vehicle id="155" depart="30.80">
        <route edges="A2A1 A1A0 A0B0"/>
    </vehicle>
    <vehicle id="156" depart="31.00">
        <route edges="B0C0 C0C1 C1B1 B1B0 B0A0 A0A1 A1B1"/>
    </vehicle>
    <vehicle id="157" depart="31.00">
        <route edges="A2A1 A1A0 A0B0"/>
    </vehicle>
    <vehicle id="158" depart="31.40">
        <route edges="left1A1 A1B1 B1B0 B0C0"/>
    </vehicle>
    <vehicle id="159" depart="31.40">
        <route edges="A1A0 A0B0 B0B1 B1C1"/>
    </vehicle>
    <vehicle id="160" depart="31.60">
        <route edges="B0C0 C0right0"/>
    </vehicle>
    <vehicle id="161" depart="32.00">
        <route edges="top1B2 B2B1 B1C1 C1C2 C2B2"/>
    </vehicle>
    <vehicle id="162" depart="32.40">
        <route edges="left2A2 A2B2 B2B1 B1B0 B0A0"/>
    </vehicle>
    <vehicle id="163" depart="32.40">
        <route edges="A2A1 A1left1"/>
    </vehicle>
    <vehicle id="164" depart="32.80">
        <route edges="bottom1B0 B0A0 A0A1"/>
    </vehicle>
    <vehicle id="165" depart="33.00">
        <route edges="B1B0 B0A0 A0left0"/>
    </vehicle>
    <vehicle id="166" depart="33.20">
        <route edges="B1C1 C1C0 C0B0 B0B1 B1B2 B2C2 C2C1 C1B1"/>
    </vehicle>
    <vehicle id="167" depart="33.60">
        <route edges="top1B2 B2B1 B1B0 B0A0 A0A1"/>
    </vehicle>
    <vehicle id="168" depart="33.80">
        <route edges="C2B2 B2A2 A2A1 A1A0 A0B0"/>
    </vehicle>
    <vehicle id="169" depart="33.80">
        <route edges="top1B2 B2C2 C2C1 C1C0 C0bottom2"/>
    </vehicle>
    <vehicle id="170" depart="34.00">
        <route edges="A1B1 B1C1 C1C0 C0B0 B0B1"/>
    </vehicle>
    <vehicle id="171" depart="34.20">
        <route edges="right2C2 C2C1 C1right1"/>
    </vehicle>
    <vehicle id="172" depart="34.20">
        <route edges="C1B1 B1A1 A1A2 A2B2"/>
    </vehicle>
    <vehicle id="173" depart="34.20">
        <route edges="C2C1 C1B1 B1A1"/>
    </vehicle>
    <vehicle id="174" depart="34.60">
        <route edges="B0C0 C0C1 C1B1 B1A1 A1A0 A0B0 B0B1"/>
    </vehicle>
    <vehicle id="175" depart="34.80">
        <route edges="C0C1 C1B1 B1B2 B2C2 C2C1 C1C0"/>
    </vehicle>
    <vehicle id="176" depart="34.80">
        <route edges="right2C2 C2C1 C1C0 C0B0 B0A0"/>
    </vehicle>
    <vehicle id="177" depart="35.20">
        <route edges="bottom2C0 C0B0 B0B1 B1B2"/>
    </vehicle>
    <vehicle id="178" depart="35.40">
        <route edges="B2A2 A2A1 A1A0 A0B0 B0B1 B1A1"/>
    </vehicle>
    <vehicle id="179" depart="36.00">
        <route edges="B0A0 A0A1 A1B1 B1C1 C1C2"/>
    </vehicle>
    <vehicle id="180" depart="36.00">
        <route edges="bottom2C0 C0B0 B0A0 A0left0"/>
    </vehicle>
    <vehicle id="181" depart="36.00">
        <route edges="B0A0 A0A1 A1A2 A2B2 B2top1"/>
    </vehicle>
    <vehicle id="182" depart="36.00">
        <route edges="C1B1 B1B0 B0C0 C0right0"/>
    </vehicle>
    <vehicle id="183" depart="36.00">
        <route edges="top2C2 C2C1 C1B1 B1B0 B0C0"/>
    </vehicle>
    <vehicle id="184" depart="36.40">
        <route edges="bottom2C0 C0B0 B0A0 A0A1"/>
    </vehicle>
    <vehicle id="185" depart="37.20">
        <route edges="C1B1 B1A1 A1A0 A0B0 B0B1"/>
    </vehicle>
    <vehicle id="186" depart="37.60">
        <route edges="A0A1 A1B1 B1B2"/>
    </vehicle>
    <vehicle id="187" depart="38.00">
        <route edges="B0B1 B1C1 C1C0 C0right0"/>
    </vehicle>
    <vehicle id="188" depart="38.00">
        <route edges="C0B0 B0B1 B1A1 A1A0 A0B0"/>
    </vehicle>
    <vehicle id="189" depart="38.20">
        <route edges="C2C1"/>
    </vehicle>
    <vehicle id="190" depart="38.40">
        <route edges="B1B0 B0C0 C0C1 C1B1 B1A1 A1A0"/>
    </vehicle>
    <vehicle id="191" depart="38.80">
        <route edges="right1C1 C1C2 C2top2"/>
    </vehicle>
    <vehicle id="192" depart="39.00">
        <route edges="top0A2 A2A1 A1A0"/>
    </vehicle>
    <vehicle id="193" depart="39.00">
        <route edges="right1C1 C1C2 C2right2"/>
    </vehicle>
    <vehicle id="194" depart="39.00">
        <route edges="A2B2 B2B1"/>
    </vehicle>
    <vehicle id="195" depart="40.20">
        <route edges="C1C0 C0B0 B0B1"/>
    </vehicle>
    <vehicle id="196" depart="40.80">
        <route edges="C0C1 C1B1 B1A1 A1A0 A0B0"/>
    </vehicle>
    <vehicle id="197" depart="41.00">
        <route edges="A2A1 A1B1 B1B0 B0bottom1"/>
    </vehicle>
    <vehicle id="198" depart="41.20">
        <route edges="left0A0 A0A1 A1B1 B1C1 C1C0"/>
    </vehicle>
    <vehicle id="199" depart="41.40">
        <route edges="C1C0 C0B0 B0B1 B1C1 C1right1"/>
    </vehicle>
    <vehicle id="200" depart="41.40">
        <route edges="right0C0 C0bottom2"/>
    </vehicle>
    <vehicle id="201" depart="41.60">
        <route edges="right2C2 C2C1 C1C0 C0B0 B0A0 A0A1"/>
    </vehicle>
    <vehicle id="202" depart="42.20">
        <route edges="B1B2 B2A2 A2A1 A1A0 A0B0"/>
    </vehicle>
    <vehicle id="203" depart="42.60">
        <route edges="A2A1 A1B1 B1B2"/>
    </vehicle>
    <vehicle id="204" depart="43.00">
        <route edges="C2B2"/>
    </vehicle>
    <vehicle id="205" depart="43.00">
        <route edges="left1A1 A1A0 A0B0 B0B1"/>
    </vehicle>
    <vehicle id="206" depart="43.00">
        <route edges="right0C0 C0B0 B0A0 A0A1 A1A2"/>
    </vehicle>
    <vehicle id="207" depart="43.20">
        <route edges="right0C0 C0B0 B0A0 A0A1 A1A2"/>
    </vehicle>
    <vehicle id="208" depart="43.20">
        <route edges="C0C1 C1B1 B1B0"/>
    </vehicle>
    <vehicle id="209" depart="43.40">
        <route edges="left1A1 A1A0 A0bottom0"/>
    </vehicle>
    <vehicle id="210" depart="43.40">
        <route edges="A2B2 B2B1 B1B0 B0bottom1"/>
    </vehicle>
    <vehicle id="211" depart="43.60">
        <route edges="C1B1 B1A1 A1A2 A2B2 B2B1"/>
    </vehicle>
    <vehicle id="212" depart="43.80">
        <route edges="top2C2 C2C1 C1C0 C0B0 B0A0 A0bottom0"/>
    </vehicle>
    <vehicle id="213" depart="43.80">
        <route edges="right2C2 C2C1 C1B1 B1A1 A1A2 A2B2"/>
    </vehicle>
    <vehicle id="214" depart="43.80">
        <route edges="B0C0 C0C1 C1B1"/>
    </vehicle>
    <vehicle id="215" depart="44.00">
        <route edges="B2A2 A2A1 A1A0 A0B0 B0C0 C0bottom2"/>
    </vehicle>
    <vehicle id="216" depart="44.40">
        <route edges="A1B1 B1B2"/>
    </vehicle>
    <vehicle id="217" depart="44.40">
        <route edges="top1B2 B2A2 A2A1"/>
    </vehicle>
    <vehicle id="218" depart="44.80">
        <route edges="B0C0 C0C1 C1B1 B1A1 A1A0 A0B0 B0B1"/>
    </vehicle>
    <vehicle id="219" depart="45.00">
        <route edges="A0A1 A1B1 B1B0 B0C0"/>
    </vehicle>
    <vehicle id="220" depart="45.40">
        <route edges="C0C1 C1B1 B1B2 B2C2 C2C1"/>
    </vehicle>
    <vehicle id="221" depart="45.60">
        <route edges="A1A0 A0B0 B0B1 B1C1"/>
    </vehicle>
    <vehicle id="222" depart="45.80">
        <route edges="left2A2 A2B2 B2B1 B1C1 C1C2"/>
    </vehicle>
    <vehicle id="223" depart="45.80">
        <route edges="bottom1B0 B0B1 B1B2 B2A2"/>
    </vehicle>
    <vehicle id="224" depart="45.80">
        <route edges="A1A2"/>
    </vehicle>
    <vehicle id="225" depart="46.00">
        <route edges="A2B2 B2C2 C2C1 C1C0 C0right0"/>
    </vehicle>
    <vehicle id="226" depart="46.20">
        <route edges="B1A1 A1A0 A0B0 B0bottom1"/>
    </vehicle>
    <vehicle id="227" depart="46.80">
        <route edges="right2C2 C2C1 C1C0"/>
    </vehicle>
    <vehicle id="228" depart="48.00">
        <route edges="C1C2 C2B2 B2B1 B1B0"/>
    </vehicle>
    <vehicle id="229" depart="48.00">
        <route edges="C0C1 C1B1 B1B0 B0C0"/>
    </vehicle>
    <vehicle id="230" depart="48.00">
        <route edges="C1C2 C2B2"/>
    </vehicle>
    <vehicle id="231" depart="48.20">
        <route edges="left0A0 A0B0 B0C0 C0C1 C1C2"/>
    </vehicle>
    <vehicle id="232" depart="48.40">
        <route edges="C0B0 B0A0 A0A1 A1A2 A2left2"/>
    </vehicle>
    <vehicle id="233" depart="48.60">
        <route edges="B2B1 B1B0"/>
    </vehicle>
    <vehicle id="234" depart="48.60">
        <route edges="B0B1 B1A1 A1A2 A2top0"/>
    </vehicle>
    <vehicle id="235" depart="48.60">
        <route edges="A2A1 A1B1 B1B0 B0A0 A0A1 A1A2"/>
    </vehicle>
    <vehicle id="236" depart="48.80">
        <route edges="A0B0 B0C0 C0C1 C1C2 C2top2"/>
    </vehicle>
    <vehicle id="237" depart="49.20">
        <route edges="B1A1 A1A2 A2B2"/>
    </vehicle>
    <vehicle id="238" depart="49.60">
        <route edges="A2B2 B2top1"/>
    </vehicle>
    <vehicle id="239" depart="50.20">
        <route edges="A1A0 A0B0 B0B1 B1C1"/>
    </vehicle>
    <vehicle id="240" depart="50.20">
        <route edges="bottom1B0 B0C0"/>
    </vehicle>
    <vehicle id="241" depart="50.40">
        <route edges="B2C2 C2right2"/>
    </vehicle>
    <vehicle id="242" depart="50.60">
        <route edges="A0A1 A1B1 B1C1 C1C0 C0right0"/>
    </vehicle>
    <vehicle id="243" depart="51.00">
        <route edges="A1B1 B1B2 B2A2 A2top0"/>
    </vehicle>
    <vehicle id="244" depart="51.60">
        <route edges="B1A1 A1A0 A0B0 B0B1 B1B2"/>
    </vehicle>
    <vehicle id="245" depart="51.60">
        <route edges="bottom0A0 A0A1 A1A2 A2B2 B2C2 C2top2"/>
    </vehicle>
    <vehicle id="246" depart="51.80">
        <route edges="A2B2 B2B1 B1A1"/>
    </vehicle>
    <vehicle id="247" depart="51.80">
        <route edges="B0C0 C0C1 C1B1 B1A1 A1A2 A2B2"/>
    </vehicle>
    <vehicle id="248" depart="52.00">
        <route edges="bottom2C0 C0C1 C1B1 B1B0"/>
    </vehicle>
    <vehicle id="249" depart="52.00">
        <route edges="B2A2 A2A1 A1B1 B1B0 B0A0 A0A1 A1A2"/>
    </vehicle>
    <vehicle id="250" depart="52.00">
        <route edges="A1A0 A0B0 B0B1 B1B2 B2A2 A2A1"/>
    </vehicle>
    <vehicle id="251" depart="52.00">
        <route edges="left2A2 A2B2 B2C2 C2C1 C1C0 C0B0"/>
    </vehicle>
    <vehicle id="252" depart="52.00">
        <route edges="B1B2 B2C2 C2C1 C1C0 C0B0 B0A0"/>
    </vehicle>
    <vehicle id="253" depart="52.20">
        <route edges="C2B2 B2A2 A2A1 A1A0 A0B0"/>
    </vehicle>
    <vehicle id="254" depart="52.40">
        <route edges="bottom2C0 C0C1 C1C2 C2B2 B2A2 A2left2"/>
    </vehicle>
    <vehicle id="255" depart="52.60">
        <route edges="A0A1 A1A2 A2B2 B2top1"/>
    </vehicle>
    <vehicle id="256" depart="52.60">
        <route edges="B2A2 A2A1 A1A0 A0B0 B0bottom1"/>
    </vehicle>
    <vehicle id="257" depart="52.80">
        <route edges="C2C1 C1C0 C0B0"/>
    </vehicle>
    <vehicle id="258" depart="53.20">
        <route edges="right1C1 C1C0"/>
    </vehicle>
    <vehicle id="259" depart="53.40">
        <route edges="A1A0 A0B0 B0B1 B1B2 B2A2"/>
    </vehicle>
    <vehicle id="260" depart="53.40">
        <route edges="A0B0 B0B1 B1B2"/>
    </vehicle>
    <vehicle id="261" depart="53.60">
        <route edges="left1A1 A1B1 B1C1 C1C0 C0bottom2"/>
    </vehicle>
    <vehicle id="262" depart="53.60">
        <route edges="C2C1 C1B1 B1B0 B0C0 C0C1"/>
    </vehicle>
    <vehicle id="263" depart="53.80">
        <route edges="C1C2 C2B2 B2B1"/>
    </vehicle>
    <vehicle id="264" depart="54.00">
        <route edges="top2C2 C2B2 B2A2 A2top0"/>
    </vehicle>
    <vehicle id="265" depart="54.40">
        <route edges="B0C0 C0C1 C1B1 B1B2 B2C2 C2C1"/>
    </vehicle>
    <vehicle id="266" depart="55.20">
        <route edges="A0A1 A1A2 A2B2 B2C2"/>
    </vehicle>
    <vehicle id="267" depart="55.40">
        <route edges="top2C2 C2B2 B2A2 A2A1 A1B1"/>
    </vehicle>
    <vehicle id="268" depart="56.00">
        <route edges="A2A1 A1B1 B1B0 B0A0 A0A1 A1A2"/>
    </vehicle>
    <vehicle id="269" depart="56.20">
        <route edges="C1C2 C2B2 B2A2 A2top0"/>
    </vehicle>
    <vehicle id="270" depart="56.40">
        <route edges="A0A1 A1B1"/>
    </vehicle>
    <vehicle id="271" depart="56.60">
        <route edges="left0A0 A0A1 A1left1"/>
    </vehicle>
    <vehicle id="272" depart="56.80">
        <route edges="C0C1 C1B1"/>
    </vehicle>
    <vehicle id="273" depart="56.80">
        <route edges="B0C0 C0C1 C1B1 B1B0 B0A0"/>
    </vehicle>
    <vehicle id="274" depart="57.20">
        <route edges="A2A1 A1A0 A0bottom0"/>
    </vehicle>
    <vehicle id="275" depart="57.40">
        <route edges="B2A2 A2A1 A1B1 B1B0 B0A0 A0A1 A1A2 A2B2"/>
    </vehicle>
    <vehicle id="276" depart="57.40">
        <route edges="left0A0 A0A1 A1B1 B1C1"/>
    </vehicle>
    <vehicle id="277" depart="57.40">
        <route edges="C1C0 C0B0 B0A0 A0A1 A1B1 B1B0"/>
    </vehicle>
    <vehicle id="278" depart="57.80">
        <route edges="A2A1 A1B1 B1C1"/>
    </vehicle>
    <vehicle id="279" depart="57.80">
        <route edges="right1C1 C1C0 C0B0"/>
    </vehicle>
    <vehicle id="280" depart="58.20">
        <route edges="B1A1 A1A0 A0B0 B0C0 C0bottom2"/>
    </vehicle>
    <vehicle id="281" depart="58.20">
        <route edges="B1A1 A1A0"/>
    </vehicle>
    <vehicle id="282" depart="58.20">
        <route edges="B2C2 C2C1 C1B1 B1A1 A1A2 A2top0"/>
    </vehicle>
    <vehicle id="283" depart="58.40">
        <route edges="C1C2 C2B2 B2top1"/>
    </vehicle>
    <vehicle id="284" depart="58.40">
        <route edges="B0A0 A0A1 A1B1 B1C1 C1C0 C0bottom2"/>
    </vehicle>