<?xml version="1.0" encoding="UTF-8"?>

<!-- generated on 2024-12-11 04:03:31.758516 by randomTrips.py UNKNOWN
<configuration>
    <net-file value="4x4.net.xml"/>
    <route-file value="4x4.rou.xml"/>
    <seed value="45"/>
    <end value="100.0"/>
    <period value="0.15"/>
    <random-depart value="True"/>
</configuration>
-->

<!-- generated on 2024-12-11 04:03:31 by Eclipse SUMO duarouter Version 1.21.0
<duarouterConfiguration xmlns:xsi="http://www.w3.org/2001/XMLSchema-instance" xsi:noNamespaceSchemaLocation="http://sumo.dlr.de/xsd/duarouterConfiguration.xsd">

    <input>
        <net-file value="4x4.net.xml"/>
        <route-files value="trips.trips.xml"/>
    </input>

    <output>
        <output-file value="4x4.rou.xml"/>
        <alternatives-output value="NUL"/>
    </output>

    <time>
        <begin value="0.0"/>
        <end value="100.0"/>
    </time>

    <report>
        <no-warnings value="true"/>
        <ignore-errors value="true"/>
        <no-step-log value="true"/>
    </report>

</duarouterConfiguration>
-->

<routes xmlns:xsi="http://www.w3.org/2001/XMLSchema-instance" xsi:noNamespaceSchemaLocation="http://sumo.dlr.de/xsd/routes_file.xsd">
    <vehicle id="0" depart="0.05">
        <route edges="top1B3 B3B2 B2B1 B1B0 B0C0 C0D0"/>
    </vehicle>
    <vehicle id="1" depart="0.25">
        <route edges="C0C1 C1C2 C2B2"/>
    </vehicle>
    <vehicle id="2" depart="0.35">
        <route edges="C3C2 C2C1 C1C0 C0D0 D0D1"/>
    </vehicle>
    <vehicle id="3" depart="0.45">
        <route edges="C1D1"/>
    </vehicle>
    <vehicle id="4" depart="0.60">
        <route edges="D0C0 C0C1 C1C2 C2C3 C3B3"/>
    </vehicle>
    <vehicle id="5" depart="1.05">
        <route edges="B3B2 B2B1 B1B0 B0C0 C0D0 D0right0"/>
    </vehicle>
    <vehicle id="6" depart="1.10">
        <route edges="D1D2 D2D3 D3C3 C3C2"/>
    </vehicle>
    <vehicle id="7" depart="1.10">
        <route edges="C3C2 C2C1 C1B1 B1B2 B2C2"/>
    </vehicle>
    <vehicle id="8" depart="1.15">
        <route edges="B2B1 B1C1 C1C2 C2D2"/>
    </vehicle>
    <vehicle id="9" depart="1.15">
        <route edges="A1A0 A0B0 B0B1"/>
    </vehicle>
    <vehicle id="10" depart="1.45">
        <route edges="A2B2 B2B3 B3C3 C3C2 C2B2"/>
    </vehicle>
    <vehicle id="11" depart="1.85">
        <route edges="right0D0 D0C0 C0C1 C1C2 C2C3 C3B3 B3A3 A3left3"/>
    </vehicle>
    <vehicle id="12" depart="2.20">
        <route edges="D2D1 D1D0 D0C0 C0B0 B0B1 B1C1"/>
    </vehicle>
    <vehicle id="13" depart="2.25">
        <route edges="C3C2 C2C1 C1B1 B1A1 A1A0 A0B0"/>
    </vehicle>
    <vehicle id="14" depart="2.25">
        <route edges="C2B2 B2B1 B1C1 C1C0 C0B0 B0B1"/>
    </vehicle>
    <vehicle id="15" depart="2.30">
        <route edges="C3C2 C2C1 C1C0 C0B0 B0bottom1"/>
    </vehicle>
    <vehicle id="16" depart="2.35">
        <route edges="top3D3 D3D2 D2C2 C2B2 B2A2 A2A1 A1A0 A0bottom0"/>
    </vehicle>
    <vehicle id="17" depart="2.40">
        <route edges="bottom1B0 B0B1 B1B2 B2C2 C2C3"/>
    </vehicle>
    <vehicle id="18" depart="2.65">
        <route edges="A0B0 B0C0 C0D0"/>
    </vehicle>
    <vehicle id="19" depart="2.75">
        <route edges="B1B0 B0C0 C0D0 D0D1"/>
    </vehicle>
    <vehicle id="20" depart="2.85">
        <route edges="C2B2 B2A2 A2A3"/>
    </vehicle>
    <vehicle id="21" depart="2.95">
        <route edges="B0B1"/>
    </vehicle>
    <vehicle id="22" depart="3.15">
        <route edges="B3B2 B2C2 C2D2 D2D1"/>
    </vehicle>
    <vehicle id="23" depart="3.85">
        <route edges="left3A3 A3A2 A2left2"/>
    </vehicle>
    <vehicle id="24" depart="3.95">
        <route edges="top0A3 A3B3 B3C3"/>
    </vehicle>
    <vehicle id="25" depart="4.10">
        <route edges="C0B0 B0B1 B1B2 B2C2 C2D2 D2D3 D3C3"/>
    </vehicle>
    <vehicle id="26" depart="4.15">
        <route edges="C1D1 D1D0 D0C0 C0B0 B0B1 B1A1 A1A0"/>
    </vehicle>
    <vehicle id="27" depart="4.30">
        <route edges="C0D0 D0D1 D1C1 C1B1 B1A1 A1left1"/>
    </vehicle>
    <vehicle id="28" depart="4.50">
        <route edges="D2C2 C2C3 C3D3 D3right3"/>
    </vehicle>
    <vehicle id="29" depart="4.65">
        <route edges="bottom1B0 B0B1 B1B2 B2C2 C2D2 D2D1"/>
    </vehicle>
    <vehicle id="30" depart="4.70">
        <route edges="A0B0 B0B1 B1B2 B2A2"/>
    </vehicle>
    <vehicle id="31" depart="5.05">
        <route edges="A0A1 A1B1 B1C1 C1C0"/>
    </vehicle>
    <vehicle id="32" depart="5.30">
        <route edges="A2A1 A1A0 A0B0 B0C0 C0C1"/>
    </vehicle>
    <vehicle id="33" depart="5.35">
        <route edges="D1D2 D2C2 C2C3 C3D3 D3D2 D2D1 D1C1"/>
    </vehicle>
    <vehicle id="34" depart="5.35">
        <route edges="D1D2 D2C2 C2C1 C1C0 C0B0"/>
    </vehicle>
    <vehicle id="35" depart="5.45">
        <route edges="bottom3D0 D0D1 D1D2 D2D3 D3C3 C3B3 B3A3 A3left3"/>
    </vehicle>
    <vehicle id="36" depart="5.75">
        <route edges="top1B3 B3A3 A3A2"/>
    </vehicle>
    <vehicle id="37" depart="5.80">
        <route edges="C0C1 C1C2 C2B2 B2A2 A2A1"/>
    </vehicle>
    <vehicle id="38" depart="5.80">
        <route edges="B3B2 B2C2 C2C1 C1C0"/>
    </vehicle>
    <vehicle id="39" depart="6.20">
        <route edges="B2C2 C2C1 C1B1 B1B0 B0C0"/>
    </vehicle>
    <vehicle id="40" depart="6.50">
        <route edges="B1B0 B0C0 C0D0 D0D1 D1right1"/>
    </vehicle>
    <vehicle id="41" depart="6.55">
        <route edges="D0C0 C0C1 C1D1 D1D2"/>
    </vehicle>
    <vehicle id="42" depart="6.60">
        <route edges="B1B2 B2C2 C2C1 C1B1 B1B0"/>
    </vehicle>
    <vehicle id="43" depart="6.65">
        <route edges="B2B1 B1C1 C1D1 D1D2 D2D3"/>
    </vehicle>
    <vehicle id="44" depart="6.70">
        <route edges="C3C2 C2C1 C1C0"/>
    </vehicle>
    <vehicle id="45" depart="6.85">
        <route edges="bottom2C0 C0C1 C1C2"/>
    </vehicle>
    <vehicle id="46" depart="7.10">
        <route edges="C0D0 D0D1 D1C1 C1B1 B1A1 A1A2 A2A3"/>
    </vehicle>
    <vehicle id="47" depart="7.30">
        <route edges="A1A0 A0B0 B0B1"/>
    </vehicle>
    <vehicle id="48" depart="7.30">
        <route edges="B0B1 B1A1 A1A2 A2B2"/>
    </vehicle>
    <vehicle id="49" depart="7.35">
        <route edges="A1A0 A0B0 B0C0 C0D0 D0bottom3"/>
    </vehicle>
    <vehicle id="50" depart="7.50">
        <route edges="C0C1 C1B1 B1A1 A1A0 A0left0"/>
    </vehicle>
    <vehicle id="51" depart="7.65">
        <route edges="C2D2 D2D1 D1D0 D0C0 C0B0 B0A0"/>
    </vehicle>
    <vehicle id="52" depart="7.70">
        <route edges="bottom0A0 A0A1 A1B1 B1C1 C1D1 D1D2 D2D3 D3C3"/>
    </vehicle>
    <vehicle id="53" depart="7.70">
        <route edges="right1D1 D1C1"/>
    </vehicle>
    <vehicle id="54" depart="7.75">
        <route edges="B3B2 B2A2 A2A3"/>
    </vehicle>
    <vehicle id="55" depart="8.05">
        <route edges="B1A1 A1A2 A2B2 B2C2 C2C3 C3B3"/>
    </vehicle>
    <vehicle id="56" depart="8.10">
        <route edges="A0B0 B0C0 C0C1 C1B1 B1B0"/>
    </vehicle>
    <vehicle id="57" depart="8.15">
        <route edges="A2A3 A3B3 B3B2 B2A2"/>
    </vehicle>
    <vehicle id="58" depart="8.20">
        <route edges="bottom3D0 D0C0 C0C1 C1C2 C2C3 C3D3 D3D2"/>
    </vehicle>
    <vehicle id="59" depart="8.20">
        <route edges="A0B0 B0B1 B1C1 C1D1"/>
    </vehicle>
    <vehicle id="60" depart="8.30">
        <route edges="A1A0 A0B0 B0C0 C0D0 D0D1 D1D2 D2D3 D3C3"/>
    </vehicle>
    <vehicle id="61" depart="8.60">
        <route edges="D3D2 D2C2 C2B2 B2A2 A2A1"/>
    </vehicle>
    <vehicle id="62" depart="8.65">
        <route edges="C0B0 B0B1 B1B2 B2C2 C2D2 D2D1"/>
    </vehicle>
    <vehicle id="63" depart="8.65">
        <route edges="left3A3 A3B3 B3B2 B2B1 B1B0 B0C0 C0D0"/>
    </vehicle>
    <vehicle id="64" depart="8.85">
        <route edges="B2A2 A2A3 A3B3 B3C3 C3C2 C2C1"/>
    </vehicle>
    <vehicle id="65" depart="8.85">
        <route edges="C1C2 C2B2 B2B1 B1B0 B0A0"/>
    </vehicle>
    <vehicle id="66" depart="9.15">
        <route edges="C0B0 B0B1 B1C1 C1D1 D1D0 D0C0 C0C1"/>
    </vehicle>
    <vehicle id="67" depart="9.15">
        <route edges="bottom3D0 D0D1 D1D2 D2D3"/>
    </vehicle>
    <vehicle id="68" depart="9.15">
        <route edges="B3B2 B2C2 C2C3 C3top2"/>
    </vehicle>
    <vehicle id="69" depart="9.30">
        <route edges="C2C3 C3D3 D3D2 D2C2 C2B2 B2B3"/>
    </vehicle>
    <vehicle id="70" depart="9.70">
        <route edges="C1C2 C2B2 B2A2 A2A3 A3B3"/>
    </vehicle>
    <vehicle id="71" depart="9.80">
        <route edges="left2A2 A2A3 A3B3 B3C3 C3D3"/>
    </vehicle>
    <vehicle id="72" depart="10.05">
        <route edges="A2A1 A1B1 B1B2 B2B3 B3A3 A3A2"/>
    </vehicle>
    <vehicle id="73" depart="10.55">
        <route edges="D1D0 D0C0 C0B0 B0B1 B1C1 C1C0 C0D0"/>
    </vehicle>
    <vehicle id="74" depart="10.70">
        <route edges="bottom0A0 A0A1 A1A2 A2A3 A3B3 B3C3 C3D3 D3right3"/>
    </vehicle>
    <vehicle id="75" depart="10.75">
        <route edges="C0C1 C1C2 C2C3 C3top2"/>
    </vehicle>
    <vehicle id="76" depart="10.90">
        <route edges="A0B0 B0C0 C0D0"/>
    </vehicle>
    <vehicle id="77" depart="10.95">
        <route edges="B3C3 C3C2 C2C1 C1C0 C0B0 B0A0 A0A1"/>
    </vehicle>
    <vehicle id="78" depart="11.00">
        <route edges="C2C1 C1B1 B1A1 A1A2 A2A3 A3top0"/>
    </vehicle>
    <vehicle id="79" depart="11.30">
        <route edges="bottom1B0 B0B1 B1B2 B2B3 B3C3"/>
    </vehicle>
    <vehicle id="80" depart="11.35">
        <route edges="A1A0 A0B0 B0B1 B1B2 B2C2 C2C1"/>
    </vehicle>
    <vehicle id="81" depart="11.35">
        <route edges="right3D3 D3D2 D2D1 D1C1 C1B1 B1A1"/>
    </vehicle>
    <vehicle id="82" depart="11.70">
        <route edges="A2B2 B2C2 C2D2 D2D1 D1right1"/>
    </vehicle>
    <vehicle id="83" depart="12.15">
        <route edges="top2C3 C3C2 C2D2 D2right2"/>
    </vehicle>
    <vehicle id="84" depart="12.20">
        <route edges="A3A2 A2A1 A1B1 B1C1 C1D1 D1right1"/>
    </vehicle>
    <vehicle id="85" depart="12.25">
        <route edges="top1B3 B3A3 A3A2"/>
    </vehicle>
    <vehicle id="86" depart="12.30">
        <route edges="D0C0 C0bottom2"/>
    </vehicle>
    <vehicle id="87" depart="12.45">
        <route edges="B3C3 C3C2 C2C1 C1C0 C0B0"/>
    </vehicle>
    <vehicle id="88" depart="12.55">
        <route edges="A1A0 A0B0 B0B1 B1A1 A1A2 A2A3"/>
    </vehicle>
    <vehicle id="89" depart="12.80">
        <route edges="C1B1 B1B0 B0C0 C0D0 D0D1"/>
    </vehicle>
    <vehicle id="90" depart="12.95">
        <route edges="left0A0 A0A1 A1B1 B1C1 C1C0"/>
    </vehicle>
    <vehicle id="91" depart="13.00">
        <route edges="left3A3 A3B3 B3C3 C3C2 C2C1 C1D1 D1D2"/>
    </vehicle>
    <vehicle id="92" depart="13.15">
        <route edges="D3D2 D2D1"/>
    </vehicle>
    <vehicle id="93" depart="13.25">
        <route edges="A0B0 B0C0 C0C1 C1B1 B1B0"/>
    </vehicle>
    <vehicle id="94" depart="13.30">
        <route edges="A1A2 A2A3"/>
    </vehicle>
    <vehicle id="95" depart="13.30">
        <route edges="C2C3 C3D3 D3D2 D2C2 C2B2"/>
    </vehicle>
    <vehicle id="96" depart="13.50">
        <route edges="right1D1 D1D0 D0right0"/>
    </vehicle>
    <vehicle id="97" depart="13.50">
        <route edges="B3C3 C3D3 D3D2 D2D1 D1D0"/>
    </vehicle>
    <vehicle id="98" depart="13.85">
        <route edges="B0A0 A0A1 A1B1 B1C1 C1D1 D1D0"/>
    </vehicle>
    <vehicle id="99" depart="13.90">
        <route edges="B0A0 A0A1 A1B1 B1C1 C1C0 C0B0"/>
    </vehicle>
    <vehicle id="100" depart="14.20">
        <route edges="C1D1 D1D0 D0bottom3"/>
    </vehicle>
    <vehicle id="101" depart="14.80">
        <route edges="A1B1 B1B2 B2B3 B3A3 A3A2"/>
    </vehicle>
    <vehicle id="102" depart="15.10">
        <route edges="C1C0 C0D0"/>
    </vehicle>
    <vehicle id="103" depart="15.10">
        <route edges="D0C0 C0C1 C1C2 C2C3 C3D3 D3top3"/>
    </vehicle>
    <vehicle id="104" depart="15.10">
        <route edges="A2A1 A1B1 B1C1 C1D1 D1D2 D2D3"/>
    </vehicle>
    <vehicle id="105" depart="15.40">
        <route edges="B2A2 A2A1 A1B1 B1B0 B0A0"/>
    </vehicle>
    <vehicle id="106" depart="15.40">
        <route edges="bottom3D0 D0D1 D1D2 D2C2 C2B2 B2A2"/>
    </vehicle>
    <vehicle id="107" depart="15.55">
        <route edges="D3D2 D2C2 C2B2 B2A2 A2A1"/>
    </vehicle>
    <vehicle id="108" depart="15.70">
        <route edges="C2C1 C1D1 D1D2 D2D3 D3right3"/>
    </vehicle>
    <vehicle id="109" depart="16.00">
        <route edges="B1B0 B0A0"/>
    </vehicle>
    <vehicle id="110" depart="16.10">
        <route edges="B3C3 C3C2 C2C1 C1B1 B1A1 A1A0 A0B0"/>
    </vehicle>
    <vehicle id="111" depart="16.15">
        <route edges="C0B0"/>
    </vehicle>
    <vehicle id="112" depart="16.15">
        <route edges="right3D3 D3D2 D2D1 D1D0 D0C0 C0B0 B0A0 A0left0"/>
    </vehicle>
    <vehicle id="113" depart="16.20">
        <route edges="C2D2 D2D1 D1C1"/>
    </vehicle>
    <vehicle id="114" depart="16.25">
        <route edges="left2A2 A2B2 B2C2 C2C3 C3B3"/>
    </vehicle>
    <vehicle id="115" depart="16.30">
        <route edges="C3D3 D3D2 D2D1 D1C1 C1B1 B1A1 A1A2"/>
    </vehicle>
    <vehicle id="116" depart="16.40">
        <route edges="A3B3 B3B2 B2B1 B1A1 A1A2 A2B2"/>
    </vehicle>
    <vehicle id="117" depart="16.45">
        <route edges="bottom0A0 A0B0 B0C0"/>
    </vehicle>
    <vehicle id="118" depart="16.50">
        <route edges="C1B1 B1B2 B2C2 C2D2 D2D3"/>
    </vehicle>
    <vehicle id="119" depart="17.10">
        <route edges="left1A1 A1B1 B1C1 C1C2"/>
    </vehicle>
    <vehicle id="120" depart="17.15">
        <route edges="C1D1 D1D0 D0C0 C0B0"/>
    </vehicle>
    <vehicle id="121" depart="17.35">
        <route edges="C0C1 C1C2"/>
    </vehicle>
    <vehicle id="122" depart="17.55">
        <route edges="right2D2 D2D1 D1D0 D0C0"/>
    </vehicle>
    <vehicle id="123" depart="17.90">
        <route edges="left1A1 A1B1 B1B2 B2B3 B3top1"/>
    </vehicle>
    <vehicle id="124" depart="17.95">
        <route edges="B2B1 B1A1 A1A2 A2B2 B2C2"/>
    </vehicle>
    <vehicle id="125" depart="18.45">
        <route edges="C2B2 B2A2 A2A3 A3top0"/>
    </vehicle>
    <vehicle id="126" depart="18.55">
        <route edges="B2C2 C2C1 C1B1 B1A1 A1A2 A2A3"/>
    </vehicle>
    <vehicle id="127" depart="18.60">
        <route edges="A3A2 A2A1 A1A0 A0bottom0"/>
    </vehicle>
    <vehicle id="128" depart="18.80">
        <route edges="top3D3 D3D2 D2D1 D1C1 C1B1 B1B0 B0C0"/>
    </vehicle>
    <vehicle id="129" depart="18.80">
        <route edges="B2A2 A2A3 A3B3 B3B2 B2B1 B1A1 A1A2 A2B2"/>
    </vehicle>
    <vehicle id="130" depart="18.85">
        <route edges="D1D0 D0C0 C0B0 B0A0 A0left0"/>
    </vehicle>
    <vehicle id="131" depart="18.85">
        <route edges="C3B3 B3B2 B2C2 C2C3 C3D3"/>
    </vehicle>
    <vehicle id="132" depart="18.90">
        <route edges="C0C1 C1B1 B1B2 B2B3 B3C3"/>
    </vehicle>
    <vehicle id="133" depart="19.00">
        <route edges="top0A3 A3A2 A2A1 A1A0 A0B0"/>
    </vehicle>
    <vehicle id="134" depart="19.60">
        <route edges="bottom0A0 A0A1 A1left1"/>
    </vehicle>
    <vehicle id="135" depart="20.15">
        <route edges="B2C2 C2C1 C1B1 B1B0 B0C0"/>
    </vehicle>
    <vehicle id="136" depart="20.20">
        <route edges="C2C1 C1B1 B1B2 B2C2 C2C3 C3B3"/>
    </vehicle>
    <vehicle id="137" depart="20.25">
        <route edges="top3D3 D3C3 C3B3 B3A3 A3A2"/>
    </vehicle>
    <vehicle id="138" depart="20.25">
        <route edges="C1D1 D1D0 D0C0 C0B0 B0B1"/>
    </vehicle>
    <vehicle id="139" depart="20.35">
        <route edges="B1C1 C1C2 C2C3 C3D3"/>
    </vehicle>
    <vehicle id="140" depart="20.50">
        <route edges="C2B2 B2B3"/>
    </vehicle>
    <vehicle id="141" depart="20.70">
        <route edges="A3B3 B3B2 B2B1 B1A1 A1A0"/>
    </vehicle>
    <vehicle id="142" depart="21.00">
        <route edges="B1B2 B2C2 C2D2 D2D1 D1C1"/>
    </vehicle>
    <vehicle id="143" depart="21.65">
        <route edges="D2C2 C2C1 C1B1 B1B2"/>
    </vehicle>
    <vehicle id="144" depart="21.75">
        <route edges="B3B2 B2B1 B1C1 C1C2 C2B2"/>
    </vehicle>
    <vehicle id="145" depart="21.85">
        <route edges="A0B0 B0B1 B1B2 B2B3 B3C3 C3D3"/>
    </vehicle>
    <vehicle id="146" depart="21.95">
        <route edges="B2B1 B1B0 B0A0 A0A1"/>
    </vehicle>
    <vehicle id="147" depart="22.00">
        <route edges="D1D2 D2C2 C2B2 B2B1"/>
    </vehicle>
    <vehicle id="148" depart="22.05">
        <route edges="C1B1 B1B2 B2C2 C2C3"/>
    </vehicle>
    <vehicle id="149" depart="22.30">
        <route edges="D2C2"/>
    </vehicle>
    <vehicle id="150" depart="22.30">
        <route edges="bottom3D0 D0C0 C0B0 B0A0 A0left0"/>
    </vehicle>
    <vehicle id="151" depart="22.45">
        <route edges="C3C2 C2C1 C1C0 C0B0 B0A0 A0left0"/>
    </vehicle>
    <vehicle id="152" depart="22.45">
        <route edges="C2C1 C1D1 D1D0 D0bottom3"/>
    </vehicle>
    <vehicle id="153" depart="22.45">
        <route edges="D3D2 D2C2 C2C1"/>
    </vehicle>
    <vehicle id="154" depart="22.50">
        <route edges="D2D1 D1C1 C1C2"/>
    </vehicle>
    <vehicle id="155" depart="22.85">
        <route edges="D0C0 C0C1 C1C2 C2C3 C3D3 D3right3"/>
    </vehicle>
    <vehicle id="156" depart="22.85">
        <route edges="B3A3 A3A2 A2A1 A1A0 A0B0 B0B1"/>
    </vehicle>
    <vehicle id="157" depart="22.90">
        <route edges="right3D3 D3C3 C3B3 B3A3 A3A2 A2A1 A1A0 A0B0"/>
    </vehicle>
    <vehicle id="158" depart="23.15">
        <route edges="D1C1 C1C2 C2C3 C3D3 D3right3"/>
    </vehicle>
    <vehicle id="159" depart="23.15">
        <route edges="B0B1 B1A1 A1A2 A2A3"/>
    </vehicle>
    <vehicle id="160" depart="23.25">
        <route edges="A3B3 B3B2 B2B1 B1C1 C1C2"/>
    </vehicle>
    <vehicle id="161" depart="23.35">
        <route edges="B2B3 B3A3 A3A2 A2A1 A1A0 A0B0"/>
    </vehicle>
    <vehicle id="162" depart="23.75">
        <route edges="B0B1 B1C1 C1C0 C0D0 D0D1"/>
    </vehicle>
    <vehicle id="163" depart="23.90">
        <route edges="B1A1 A1A2 A2B2 B2C2 C2C1 C1C0 C0B0"/>
    </vehicle>
    <vehicle id="164" depart="24.10">
        <route edges="bottom2C0 C0B0 B0B1"/>
    </vehicle>
    <vehicle id="165" depart="24.20">
        <route edges="B3A3 A3A2 A2B2"/>
    </vehicle>
    <vehicle id="166" depart="24.25">
        <route edges="A1B1 B1B2 B2B3"/>
    </vehicle>
    <vehicle id="167" depart="24.40">
        <route edges="B1C1 C1D1 D1D0 D0C0"/>
    </vehicle>
    <vehicle id="168" depart="24.40">
        <route edges="C2C3 C3D3 D3D2 D2D1 D1C1 C1B1"/>
    </vehicle>
    <vehicle id="169" depart="24.45">
        <route edges="C1D1 D1D0 D0C0 C0B0 B0A0 A0A1 A1A2 A2B2"/>
    </vehicle>
    <vehicle id="170" depart="24.65">
        <route edges="C2C3 C3D3 D3D2 D2D1 D1right1"/>
    </vehicle>
    <vehicle id="171" depart="24.80">
        <route edges="D1D2 D2C2 C2B2 B2B1 B1B0 B0C0"/>
    </vehicle>
    <vehicle id="172" depart="24.95">
        <route edges="D3D2 D2D1 D1D0 D0C0 C0B0 B0bottom1"/>
    </vehicle>
    <vehicle id="173" depart="25.20">
        <route edges="A2B2 B2B3 B3A3"/>
    </vehicle>
    <vehicle id="174" depart="25.25">
        <route edges="B2C2 C2C1 C1C0"/>
    </vehicle>
    <vehicle id="175" depart="25.30">
        <route edges="D1C1 C1B1 B1A1 A1A2 A2A3 A3B3"/>
    </vehicle>
    <vehicle id="176" depart="25.30">
        <route edges="D3C3 C3B3 B3A3 A3A2 A2A1 A1left1"/>
    </vehicle>
    <vehicle id="177" depart="25.35">
        <route edges="top1B3 B3A3 A3A2 A2B2"/>
    </vehicle>
    <vehicle id="178" depart="25.50">
        <route edges="A1B1 B1B0 B0bottom1"/>
    </vehicle>
    <vehicle id="179" depart="25.65">
        <route edges="C0D0 D0D1 D1C1 C1B1 B1A1 A1A0"/>
    </vehicle>
    <vehicle id="180" depart="25.75">
        <route edges="D3D2 D2C2 C2B2 B2A2 A2A1"/>
    </vehicle>
    <vehicle id="181" depart="26.25">
        <route edges="B0A0 A0A1 A1B1 B1C1 C1D1 D1right1"/>
    </vehicle>
    <vehicle id="182" depart="26.60">
        <route edges="C2B2 B2B1 B1A1"/>
    </vehicle>
    <vehicle id="183" depart="26.75">
        <route edges="right2D2 D2C2 C2C1 C1C0"/>
    </vehicle>
    <vehicle id="184" depart="26.75">
        <route edges="B1C1 C1C2 C2B2 B2B1 B1B0"/>
    </vehicle>
    <vehicle id="185" depart="26.80">
        <route edges="B0B1 B1B2 B2B3 B3C3 C3D3 D3right3"/>
    </vehicle>
    <vehicle id="186" depart="26.90">
        <route edges="C3B3"/>
    </vehicle>
    <vehicle id="187" depart="27.00">
        <route edges="B1C1 C1D1 D1D2 D2D3 D3top3"/>
    </vehicle>
    <vehicle id="188" depart="27.05">
        <route edges="bottom3D0 D0D1 D1D2 D2D3 D3C3 C3B3 B3A3"/>
    </vehicle>
    <vehicle id="189" depart="27.25">
        <route edges="B3C3 C3D3 D3right3"/>
    </vehicle>
    <vehicle id="190" depart="27.40">
        <route edges="D1D0 D0C0 C0C1 C1C2 C2D2 D2D1 D1C1"/>
    </vehicle>
    <vehicle id="191" depart="27.55">
        <route edges="C3D3 D3D2 D2D1 D1C1 C1B1 B1A1 A1A0"/>
    </vehicle>
    <vehicle id="192" depart="27.65">
        <route edges="B0C0 C0C1 C1B1 B1A1"/>
    </vehicle>
    <vehicle id="193" depart="27.70">
        <route edges="C3C2 C2D2 D2right2"/>
    </vehicle>
    <vehicle id="194" depart="28.00">
        <route edges="A1B1 B1C1 C1C2 C2B2 B2B1"/>
    </vehicle>
    <vehicle id="195" depart="28.05">
        <route edges="D1D2 D2D3 D3top3"/>
    </vehicle>
    <vehicle id="196" depart="28.10">
        <route edges="B2B1 B1C1 C1C2 C2C3"/>
    </vehicle>
    <vehicle id="197" depart="28.15">
        <route edges="A1B1 B1B0 B0C0"/>
    </vehicle>
    <vehicle id="198" depart="28.25">
        <route edges="D1C1 C1C2 C2B2"/>
    </vehicle>
    <vehicle id="199" depart="28.30">
        <route edges="D3C3 C3C2 C2C1 C1D1 D1D0 D0C0 C0C1"/>
    </vehicle>
    <vehicle id="200" depart="28.45">
        <route edges="C0D0 D0D1 D1C1 C1B1 B1B2"/>
    </vehicle>
    <vehicle id="201" depart="28.55">
        <route edges="top3D3 D3D2 D2C2 C2B2 B2A2 A2A1 A1A0 A0bottom0"/>
    </vehicle>
    <vehicle id="202" depart="28.75">
        <route edges="C1C0 C0B0 B0A0 A0A1 A1B1 B1B0"/>
    </vehicle>
    <vehicle id="203" depart="28.80">
        <route edges="B2A2 A2A1 A1B1 B1C1 C1C2"/>
    </vehicle>
    <vehicle id="204" depart="28.90">
        <route edges="right3D3 D3D2 D2C2 C2B2"/>
    </vehicle>
    <vehicle id="205" depart="29.05">
        <route edges="C0C1 C1C2 C2D2 D2D3"/>
    </vehicle>
    <vehicle id="206" depart="29.15">
        <route edges="B1B0 B0A0 A0A1 A1A2 A2B2 B2C2 C2C1"/>
    </vehicle>
    <vehicle id="207" depart="29.20">
        <route edges="D1C1 C1C2 C2C3 C3D3 D3D2"/>
    </vehicle>
    <vehicle id="208" depart="29.20">
        <route edges="A3A2 A2B2 B2C2 C2C3 C3B3"/>
    </vehicle>
    <vehicle id="209" depart="29.20">
        <route edges="B0B1 B1A1 A1A0 A0left0"/>
    </vehicle>
    <vehicle id="210" depart="29.40">
        <route edges="B0B1 B1B2 B2C2 C2D2"/>
    </vehicle>
    <vehicle id="211" depart="29.40">
        <route edges="B3C3 C3C2"/>
    </vehicle>
    <vehicle id="212" depart="29.50">
        <route edges="D2C2 C2C1 C1C0"/>
    </vehicle>
    <vehicle id="213" depart="29.95">
        <route edges="A3A2 A2A1 A1B1 B1B2 B2A2"/>
    </vehicle>
    <vehicle id="214" depart="30.00">
        <route edges="top2C3 C3C2 C2B2 B2A2 A2A1"/>
    </vehicle>
    <vehicle id="215" depart="30.10">
        <route edges="A1B1 B1B0 B0A0 A0A1"/>
    </vehicle>
    <vehicle id="216" depart="30.20">
        <route edges="B1B2 B2C2 C2C1 C1B1 B1A1"/>
    </vehicle>
    <vehicle id="217" depart="30.45">
        <route edges="C1C2 C2C3 C3D3 D3D2 D2C2 C2C1"/>
    </vehicle>
    <vehicle id="218" depart="30.50">
        <route edges="left2A2 A2B2 B2B3 B3A3 A3A2"/>
    </vehicle>
    <vehicle id="219" depart="30.50">
        <route edges="bottom3D0 D0D1 D1D2 D2right2"/>
    </vehicle>
    <vehicle id="220" depart="30.55">
        <route edges="C2D2 D2D1 D1C1 C1C0 C0D0"/>
    </vehicle>
    <vehicle id="221" depart="31.00">
        <route edges="D0C0 C0C1 C1C2 C2C3"/>
    </vehicle>
    <vehicle id="222" depart="31.20">
        <route edges="B0C0 C0C1 C1D1 D1D0"/>
    </vehicle>
    <vehicle id="223" depart="31.30">
        <route edges="D0D1 D1C1 C1C2 C2D2 D2D1 D1D0"/>
    </vehicle>
    <vehicle id="224" depart="31.50">
        <route edges="D2C2 C2B2 B2A2 A2A1 A1A0 A0left0"/>
    </vehicle>
    <vehicle id="225" depart="31.80">
        <route edges="right1D1 D1C1 C1B1 B1B0 B0bottom1"/>
    </vehicle>
    <vehicle id="226" depart="32.05">
        <route edges="B1B0 B0A0 A0A1 A1A2 A2B2 B2B1"/>
    </vehicle>
    <vehicle id="227" depart="32.15">
        <route edges="C3B3 B3B2 B2C2 C2C3 C3D3 D3right3"/>
    </vehicle>
    <vehicle id="228" depart="32.25">
        <route edges="D0C0 C0C1 C1C2"/>
    </vehicle>
    <vehicle id="229" depart="32.80">
        <route edges="top3D3 D3D2 D2C2 C2C1 C1D1"/>
    </vehicle>
    <vehicle id="230" depart="32.85">
        <route edges="C1C0 C0B0 B0B1 B1B2 B2C2"/>
    </vehicle>
    <vehicle id="231" depart="33.00">
        <route edges="C1B1 B1A1 A1A0 A0B0 B0B1"/>
    </vehicle>
    <vehicle id="232" depart="33.05">
        <route edges="B1A1 A1A2"/>
    </vehicle>
    <vehicle id="233" depart="33.10">
        <route edges="A0A1 A1A2 A2A3 A3B3 B3B2"/>
    </vehicle>
    <vehicle id="234" depart="33.15">
        <route edges="top1B3 B3B2 B2A2 A2A3 A3B3"/>
    </vehicle>
    <vehicle id="235" depart="33.20">
        <route edges="A3A2 A2B2 B2B1 B1A1 A1A2 A2A3 A3B3"/>
    </vehicle>
    <vehicle id="236" depart="33.60">
        <route edges="A0B0 B0B1 B1C1 C1C0 C0B0 B0A0"/>
    </vehicle>
    <vehicle id="237" depart="33.85">
        <route edges="top3D3 D3D2 D2D1 D1C1 C1B1"/>
    </vehicle>
    <vehicle id="238" depart="33.85">
        <route edges="B3B2 B2B1 B1B0 B0A0 A0left0"/>
    </vehicle>
    <vehicle id="239" depart="34.15">
        <route edges="B2A2"/>
    </vehicle>
    <vehicle id="240" depart="34.35">
        <route edges="left2A2 A2B2 B2C2 C2C1 C1B1"/>
    </vehicle>
    <vehicle id="241" depart="34.35">
        <route edges="C2B2"/>
    </vehicle>
    <vehicle id="242" depart="34.40">
        <route edges="A0B0 B0B1 B1A1 A1A0 A0bottom0"/>
    </vehicle>
    <vehicle id="243" depart="34.50">
        <route edges="B2C2 C2C1 C1B1 B1A1"/>
    </vehicle>
    <vehicle id="244" depart="34.50">
        <route edges="top3D3 D3D2 D2C2 C2C1 C1D1 D1D2"/>
    </vehicle>
    <vehicle id="245" depart="34.65">
        <route edges="right3D3 D3D2 D2C2 C2C3 C3D3"/>
    </vehicle>
    <vehicle id="246" depart="34.80">
        <route edges="right2D2 D2D3 D3top3"/>
    </vehicle>
    <vehicle id="247" depart="34.95">
        <route edges="A0A1 A1A2 A2B2 B2C2 C2D2 D2D3 D3C3"/>
    </vehicle>
    <vehicle id="248" depart="35.05">
        <route edges="C2C3 C3B3 B3B2 B2B1 B1B0 B0C0"/>
    </vehicle>
    <vehicle id="249" depart="35.40">
        <route edges="right0D0 D0C0 C0C1 C1C2 C2D2"/>
    </vehicle>
    <vehicle id="250" depart="35.60">
        <route edges="D3C3 C3C2 C2C1 C1D1 D1D0"/>
    </vehicle>
    <vehicle id="251" depart="36.00">
        <route edges="A2A1 A1B1 B1C1 C1C0 C0B0"/>
    </vehicle>
    <vehicle id="252" depart="36.00">
        <route edges="C3B3 B3A3 A3A2 A2B2"/>
    </vehicle>
    <vehicle id="253" depart="36.00">
        <route edges="C1C0 C0B0"/>
    </vehicle>
    <vehicle id="254" depart="36.20">
        <route edges="left2A2 A2B2 B2C2 C2D2 D2D1 D1D0 D0bottom3"/>
    </vehicle>
    <vehicle id="255" depart="36.25">
        <route edges="top0A3 A3A2 A2A1 A1A0"/>
    </vehicle>
    <vehicle id="256" depart="36.30">
        <route edges="left2A2 A2A3 A3top0"/>
    </vehicle>
    <vehicle id="257" depart="36.75">
        <route edges="left0A0 A0A1 A1B1 B1B0 B0A0"/>
    </vehicle>
    <vehicle id="258" depart="36.75">
        <route edges="right1D1 D1D0 D0right0"/>
    </vehicle>
    <vehicle id="259" depart="37.45">
        <route edges="B0A0 A0A1 A1B1 B1C1 C1D1 D1D0"/>
    </vehicle>
    <vehicle id="260" depart="37.90">
        <route edges="B0C0 C0C1 C1C2 C2B2 B2A2 A2A1"/>
    </vehicle>
    <vehicle id="261" depart="37.95">
        <route edges="C1C0 C0D0 D0D1 D1C1"/>
    </vehicle>
    <vehicle id="262" depart="38.05">
        <route edges="C2C3 C3D3 D3D2 D2D1 D1C1 C1C0 C0D0 D0D1"/>
    </vehicle>
    <vehicle id="263" depart="38.10">
        <route edges="D1C1 C1C0 C0D0 D0D1"/>
    </vehicle>
    <vehicle id="264" depart="38.15">
        <route edges="D3C3 C3B3 B3A3 A3A2 A2A1 A1A0 A0bottom0"/>
    </vehicle>
    <vehicle id="265" depart="38.25">
        <route edges="bottom1B0 B0B1 B1B2 B2B3 B3C3"/>
    </vehicle>
    <vehicle id="266" depart="38.35">
        <route edges="A0B0 B0B1"/>
    </vehicle>
    <vehicle id="267" depart="38.75">
        <route edges="D2C2 C2B2 B2A2 A2A1 A1B1"/>
    </vehicle>
    <vehicle id="268" depart="38.80">
        <route edges="A3B3 B3C3 C3C2 C2B2"/>
    </vehicle>
    <vehicle id="269" depart="39.25">
        <route edges="B3A3 A3A2 A2A1 A1A0 A0B0 B0B1"/>
    </vehicle>
    <vehicle id="270" depart="39.25">
        <route edges="D2D1 D1C1 C1B1 B1B2 B2B3"/>
    </vehicle>
    <vehicle id="271" depart="39.25">
        <route edges="top1B3 B3C3 C3D3 D3D2 D2C2"/>
    </vehicle>
    <vehicle id="272" depart="39.30">
        <route edges="C0D0 D0D1 D1D2 D2D3 D3C3 C3B3 B3B2"/>
    </vehicle>
    <vehicle id="273" depart="40.15">
        <route edges="D0C0 C0B0 B0B1 B1A1 A1A0 A0B0"/>
    </vehicle>
    <vehicle id="274" depart="40.35">
        <route edges="top1B3 B3C3 C3D3"/>
    </vehicle>
    <vehicle id="275" depart="41.10">
        <route edges="B1B2 B2C2 C2C1 C1C0 C0B0"/>
    </vehicle>
    <vehicle id="276" depart="41.45">
        <route edges="D2D1 D1C1 C1C2 C2D2 D2D3"/>
    </vehicle>
    <vehicle id="277" depart="41.55">
        <route edges="D1C1 C1B1 B1B2 B2A2 A2A1"/>
    </vehicle>
    <vehicle id="278" depart="41.70">
        <route edges="A1A2 A2B2 B2B1 B1B0 B0bottom1"/>
    </vehicle>
    <vehicle id="279" depart="41.75">