<?xml version="1.0" encoding="UTF-8"?>

<!-- generated on 2024-12-05 19:04:16 by Eclipse SUMO netgenerate Version 1.21.0
<netgenerateConfiguration xmlns:xsi="http://www.w3.org/2001/XMLSchema-instance" xsi:noNamespaceSchemaLocation="http://sumo.dlr.de/xsd/netgenerateConfiguration.xsd">

    <grid_network>
        <grid value="true"/>
        <grid.number value="4"/>
        <grid.length value="150"/>
        <grid.attach-length value="250"/>
    </grid_network>

    <output>
        <output-file value="4x4.net.xml"/>
    </output>

    <building_defaults>
        <default.lanenumber value="2"/>
    </building_defaults>

    <tls_building>
        <tls.set value="A0,A1,A2,B0,B1,B2,C0,C1,C2,A3,B3,C3,D3,D0,D1,D2"/>
        <tls.layout value="alternateOneWay"/>
    </tls_building>

    <junctions>
        <no-turnarounds value="true"/>
    </junctions>

</netgenerateConfiguration>
-->

<net version="1.20" junctionCornerDetail="5" limitTurnSpeed="5.50" xmlns:xsi="http://www.w3.org/2001/XMLSchema-instance" xsi:noNamespaceSchemaLocation="http://sumo.dlr.de/xsd/net_file.xsd">

    <location netOffset="0.00,0.00" convBoundary="0.00,0.00,950.00,950.00" origBoundary="0.00,0.00,950.00,950.00" projParameter="!"/>

    <edge id=":A0_0" function="internal">
        <lane id=":A0_0_0" index="0" speed="6.51" length="9.03" shape="245.20,260.40 244.85,257.95 243.80,256.20 242.05,255.15 239.60,254.80"/>
    </edge>
    <edge id=":A0_1" function="internal">
        <lane id=":A0_1_0" index="0" speed="13.89" length="20.80" shape="245.20,260.40 245.20,239.60"/>
        <lane id=":A0_1_1" index="1" speed="13.89" length="20.80" shape="248.40,260.40 248.40,239.60"/>
    </edge>
    <edge id=":A0_3" function="internal">
        <lane id=":A0_3_0" index="0" speed="9.26" length="19.35" shape="248.40,260.40 249.15,255.15 251.40,251.40 255.15,249.15 260.40,248.40"/>
    </edge>
    <edge id=":A0_4" function="internal">
        <lane id=":A0_4_0" index="0" speed="6.51" length="9.03" shape="260.40,254.80 257.95,255.15 256.20,256.20 255.15,257.95 254.80,260.40"/>
    </edge>
    <edge id=":A0_5" function="internal">
        <lane id=":A0_5_0" index="0" speed="13.89" length="20.80" shape="260.40,254.80 239.60,254.80"/>
        <lane id=":A0_5_1" index="1" speed="13.89" length="20.80" shape="260.40,251.60 239.60,251.60"/>
    </edge>
    <edge id=":A0_7" function="internal">
        <lane id=":A0_7_0" index="0" speed="9.26" length="19.35" shape="260.40,251.60 255.15,250.85 251.40,248.60 249.15,244.85 248.40,239.60"/>
    </edge>
    <edge id=":A0_8" function="internal">
        <lane id=":A0_8_0" index="0" speed="6.51" length="9.03" shape="254.80,239.60 255.15,242.05 256.20,243.80 257.95,244.85 260.40,245.20"/>
    </edge>
    <edge id=":A0_9" function="internal">
        <lane id=":A0_9_0" index="0" speed="13.89" length="20.80" shape="254.80,239.60 254.80,260.40"/>
        <lane id=":A0_9_1" index="1" speed="13.89" length="20.80" shape="251.60,239.60 251.60,260.40"/>
    </edge>
    <edge id=":A0_11" function="internal">
        <lane id=":A0_11_0" index="0" speed="9.26" length="19.35" shape="251.60,239.60 250.85,244.85 248.60,248.60 244.85,250.85 239.60,251.60"/>
    </edge>
    <edge id=":A0_12" function="internal">
        <lane id=":A0_12_0" index="0" speed="6.51" length="9.03" shape="239.60,245.20 242.05,244.85 243.80,243.80 244.85,242.05 245.20,239.60"/>
    </edge>
    <edge id=":A0_13" function="internal">
        <lane id=":A0_13_0" index="0" speed="13.89" length="20.80" shape="239.60,245.20 260.40,245.20"/>
        <lane id=":A0_13_1" index="1" speed="13.89" length="20.80" shape="239.60,248.40 260.40,248.40"/>
    </edge>
    <edge id=":A0_15" function="internal">
        <lane id=":A0_15_0" index="0" speed="9.26" length="19.35" shape="239.60,248.40 244.85,249.15 248.60,251.40 250.85,255.15 251.60,260.40"/>
    </edge>
    <edge id=":A1_0" function="internal">
        <lane id=":A1_0_0" index="0" speed="6.51" length="9.03" shape="245.20,410.40 244.85,407.95 243.80,406.20 242.05,405.15 239.60,404.80"/>
    </edge>
    <edge id=":A1_1" function="internal">
        <lane id=":A1_1_0" index="0" speed="13.89" length="20.80" shape="245.20,410.40 245.20,389.60"/>
        <lane id=":A1_1_1" index="1" speed="13.89" length="20.80" shape="248.40,410.40 248.40,389.60"/>
    </edge>
    <edge id=":A1_3" function="internal">
        <lane id=":A1_3_0" index="0" speed="9.26" length="19.35" shape="248.40,410.40 249.15,405.15 251.40,401.40 255.15,399.15 260.40,398.40"/>
    </edge>
    <edge id=":A1_4" function="internal">
        <lane id=":A1_4_0" index="0" speed="6.51" length="9.03" shape="260.40,404.80 257.95,405.15 256.20,406.20 255.15,407.95 254.80,410.40"/>
    </edge>
    <edge id=":A1_5" function="internal">
        <lane id=":A1_5_0" index="0" speed="13.89" length="20.80" shape="260.40,404.80 239.60,404.80"/>
        <lane id=":A1_5_1" index="1" speed="13.89" length="20.80" shape="260.40,401.60 239.60,401.60"/>
    </edge>
    <edge id=":A1_7" function="internal">
        <lane id=":A1_7_0" index="0" speed="9.26" length="19.35" shape="260.40,401.60 255.15,400.85 251.40,398.60 249.15,394.85 248.40,389.60"/>
    </edge>
    <edge id=":A1_8" function="internal">
        <lane id=":A1_8_0" index="0" speed="6.51" length="9.03" shape="254.80,389.60 255.15,392.05 256.20,393.80 257.95,394.85 260.40,395.20"/>
    </edge>
    <edge id=":A1_9" function="internal">
        <lane id=":A1_9_0" index="0" speed="13.89" length="20.80" shape="254.80,389.60 254.80,410.40"/>
        <lane id=":A1_9_1" index="1" speed="13.89" length="20.80" shape="251.60,389.60 251.60,410.40"/>
    </edge>
    <edge id=":A1_11" function="internal">
        <lane id=":A1_11_0" index="0" speed="9.26" length="19.35" shape="251.60,389.60 250.85,394.85 248.60,398.60 244.85,400.85 239.60,401.60"/>
    </edge>
    <edge id=":A1_12" function="internal">
        <lane id=":A1_12_0" index="0" speed="6.51" length="9.03" shape="239.60,395.20 242.05,394.85 243.80,393.80 244.85,392.05 245.20,389.60"/>
    </edge>
    <edge id=":A1_13" function="internal">
        <lane id=":A1_13_0" index="0" speed="13.89" length="20.80" shape="239.60,395.20 260.40,395.20"/>
        <lane id=":A1_13_1" index="1" speed="13.89" length="20.80" shape="239.60,398.40 260.40,398.40"/>
    </edge>
    <edge id=":A1_15" function="internal">
        <lane id=":A1_15_0" index="0" speed="9.26" length="19.35" shape="239.60,398.40 244.85,399.15 248.60,401.40 250.85,405.15 251.60,410.40"/>
    </edge>
    <edge id=":A2_0" function="internal">
        <lane id=":A2_0_0" index="0" speed="6.51" length="9.03" shape="245.20,560.40 244.85,557.95 243.80,556.20 242.05,555.15 239.60,554.80"/>
    </edge>
    <edge id=":A2_1" function="internal">
        <lane id=":A2_1_0" index="0" speed="13.89" length="20.80" shape="245.20,560.40 245.20,539.60"/>
        <lane id=":A2_1_1" index="1" speed="13.89" length="20.80" shape="248.40,560.40 248.40,539.60"/>
    </edge>
    <edge id=":A2_3" function="internal">
        <lane id=":A2_3_0" index="0" speed="9.26" length="19.35" shape="248.40,560.40 249.15,555.15 251.40,551.40 255.15,549.15 260.40,548.40"/>
    </edge>
    <edge id=":A2_4" function="internal">
        <lane id=":A2_4_0" index="0" speed="6.51" length="9.03" shape="260.40,554.80 257.95,555.15 256.20,556.20 255.15,557.95 254.80,560.40"/>
    </edge>
    <edge id=":A2_5" function="internal">
        <lane id=":A2_5_0" index="0" speed="13.89" length="20.80" shape="260.40,554.80 239.60,554.80"/>
        <lane id=":A2_5_1" index="1" speed="13.89" length="20.80" shape="260.40,551.60 239.60,551.60"/>
    </edge>
    <edge id=":A2_7" function="internal">
        <lane id=":A2_7_0" index="0" speed="9.26" length="19.35" shape="260.40,551.60 255.15,550.85 251.40,548.60 249.15,544.85 248.40,539.60"/>
    </edge>
    <edge id=":A2_8" function="internal">
        <lane id=":A2_8_0" index="0" speed="6.51" length="9.03" shape="254.80,539.60 255.15,542.05 256.20,543.80 257.95,544.85 260.40,545.20"/>
    </edge>
    <edge id=":A2_9" function="internal">
        <lane id=":A2_9_0" index="0" speed="13.89" length="20.80" shape="254.80,539.60 254.80,560.40"/>
        <lane id=":A2_9_1" index="1" speed="13.89" length="20.80" shape="251.60,539.60 251.60,560.40"/>
    </edge>
    <edge id=":A2_11" function="internal">
        <lane id=":A2_11_0" index="0" speed="9.26" length="19.35" shape="251.60,539.60 250.85,544.85 248.60,548.60 244.85,550.85 239.60,551.60"/>
    </edge>
    <edge id=":A2_12" function="internal">
        <lane id=":A2_12_0" index="0" speed="6.51" length="9.03" shape="239.60,545.20 242.05,544.85 243.80,543.80 244.85,542.05 245.20,539.60"/>
    </edge>
    <edge id=":A2_13" function="internal">
        <lane id=":A2_13_0" index="0" speed="13.89" length="20.80" shape="239.60,545.20 260.40,545.20"/>
        <lane id=":A2_13_1" index="1" speed="13.89" length="20.80" shape="239.60,548.40 260.40,548.40"/>
    </edge>
    <edge id=":A2_15" function="internal">
        <lane id=":A2_15_0" index="0" speed="9.26" length="19.35" shape="239.60,548.40 244.85,549.15 248.60,551.40 250.85,555.15 251.60,560.40"/>
    </edge>
    <edge id=":A3_0" function="internal">
        <lane id=":A3_0_0" index="0" speed="6.51" length="9.03" shape="245.20,710.40 244.85,707.95 243.80,706.20 242.05,705.15 239.60,704.80"/>
    </edge>
    <edge id=":A3_1" function="internal">
        <lane id=":A3_1_0" index="0" speed="13.89" length="20.80" shape="245.20,710.40 245.20,689.60"/>
        <lane id=":A3_1_1" index="1" speed="13.89" length="20.80" shape="248.40,710.40 248.40,689.60"/>
    </edge>
    <edge id=":A3_3" function="internal">
        <lane id=":A3_3_0" index="0" speed="9.26" length="19.35" shape="248.40,710.40 249.15,705.15 251.40,701.40 255.15,699.15 260.40,698.40"/>
    </edge>
    <edge id=":A3_4" function="internal">
        <lane id=":A3_4_0" index="0" speed="6.51" length="9.03" shape="260.40,704.80 257.95,705.15 256.20,706.20 255.15,707.95 254.80,710.40"/>
    </edge>
    <edge id=":A3_5" function="internal">
        <lane id=":A3_5_0" index="0" speed="13.89" length="20.80" shape="260.40,704.80 239.60,704.80"/>
        <lane id=":A3_5_1" index="1" speed="13.89" length="20.80" shape="260.40,701.60 239.60,701.60"/>
    </edge>
    <edge id=":A3_7" function="internal">
        <lane id=":A3_7_0" index="0" speed="9.26" length="19.35" shape="260.40,701.60 255.15,700.85 251.40,698.60 249.15,694.85 248.40,689.60"/>
    </edge>
    <edge id=":A3_8" function="internal">
        <lane id=":A3_8_0" index="0" speed="6.51" length="9.03" shape="254.80,689.60 255.15,692.05 256.20,693.80 257.95,694.85 260.40,695.20"/>
    </edge>
    <edge id=":A3_9" function="internal">
        <lane id=":A3_9_0" index="0" speed="13.89" length="20.80" shape="254.80,689.60 254.80,710.40"/>
        <lane id=":A3_9_1" index="1" speed="13.89" length="20.80" shape="251.60,689.60 251.60,710.40"/>
    </edge>
    <edge id=":A3_11" function="internal">
        <lane id=":A3_11_0" index="0" speed="9.26" length="19.35" shape="251.60,689.60 250.85,694.85 248.60,698.60 244.85,700.85 239.60,701.60"/>
    </edge>
    <edge id=":A3_12" function="internal">
        <lane id=":A3_12_0" index="0" speed="6.51" length="9.03" shape="239.60,695.20 242.05,694.85 243.80,693.80 244.85,692.05 245.20,689.60"/>
    </edge>
    <edge id=":A3_13" function="internal">
        <lane id=":A3_13_0" index="0" speed="13.89" length="20.80" shape="239.60,695.20 260.40,695.20"/>
        <lane id=":A3_13_1" index="1" speed="13.89" length="20.80" shape="239.60,698.40 260.40,698.40"/>
    </edge>
    <edge id=":A3_15" function="internal">
        <lane id=":A3_15_0" index="0" speed="9.26" length="19.35" shape="239.60,698.40 244.85,699.15 248.60,701.40 250.85,705.15 251.60,710.40"/>
    </edge>
    <edge id=":B0_0" function="internal">
        <lane id=":B0_0_0" index="0" speed="6.51" length="9.03" shape="395.20,260.40 394.85,257.95 393.80,256.20 392.05,255.15 389.60,254.80"/>
    </edge>
    <edge id=":B0_1" function="internal">
        <lane id=":B0_1_0" index="0" speed="13.89" length="20.80" shape="395.20,260.40 395.20,239.60"/>
        <lane id=":B0_1_1" index="1" speed="13.89" length="20.80" shape="398.40,260.40 398.40,239.60"/>
    </edge>
    <edge id=":B0_3" function="internal">
        <lane id=":B0_3_0" index="0" speed="9.26" length="19.35" shape="398.40,260.40 399.15,255.15 401.40,251.40 405.15,249.15 410.40,248.40"/>
    </edge>
    <edge id=":B0_4" function="internal">
        <lane id=":B0_4_0" index="0" speed="6.51" length="9.03" shape="410.40,254.80 407.95,255.15 406.20,256.20 405.15,257.95 404.80,260.40"/>
    </edge>
    <edge id=":B0_5" function="internal">
        <lane id=":B0_5_0" index="0" speed="13.89" length="20.80" shape="410.40,254.80 389.60,254.80"/>
        <lane id=":B0_5_1" index="1" speed="13.89" length="20.80" shape="410.40,251.60 389.60,251.60"/>
    </edge>
    <edge id=":B0_7" function="internal">
        <lane id=":B0_7_0" index="0" speed="9.26" length="19.35" shape="410.40,251.60 405.15,250.85 401.40,248.60 399.15,244.85 398.40,239.60"/>
    </edge>
    <edge id=":B0_8" function="internal">
        <lane id=":B0_8_0" index="0" speed="6.51" length="9.03" shape="404.80,239.60 405.15,242.05 406.20,243.80 407.95,244.85 410.40,245.20"/>
    </edge>
    <edge id=":B0_9" function="internal">
        <lane id=":B0_9_0" index="0" speed="13.89" length="20.80" shape="404.80,239.60 404.80,260.40"/>
        <lane id=":B0_9_1" index="1" speed="13.89" length="20.80" shape="401.60,239.60 401.60,260.40"/>
    </edge>
    <edge id=":B0_11" function="internal">
        <lane id=":B0_11_0" index="0" speed="9.26" length="19.35" shape="401.60,239.60 400.85,244.85 398.60,248.60 394.85,250.85 389.60,251.60"/>
    </edge>
    <edge id=":B0_12" function="internal">
        <lane id=":B0_12_0" index="0" speed="6.51" length="9.03" shape="389.60,245.20 392.05,244.85 393.80,243.80 394.85,242.05 395.20,239.60"/>
    </edge>
    <edge id=":B0_13" function="internal">
        <lane id=":B0_13_0" index="0" speed="13.89" length="20.80" shape="389.60,245.20 410.40,245.20"/>
        <lane id=":B0_13_1" index="1" speed="13.89" length="20.80" shape="389.60,248.40 410.40,248.40"/>
    </edge>
    <edge id=":B0_15" function="internal">
        <lane id=":B0_15_0" index="0" speed="9.26" length="19.35" shape="389.60,248.40 394.85,249.15 398.60,251.40 400.85,255.15 401.60,260.40"/>
    </edge>
    <edge id=":B1_0" function="internal">
        <lane id=":B1_0_0" index="0" speed="6.51" length="9.03" shape="395.20,410.40 394.85,407.95 393.80,406.20 392.05,405.15 389.60,404.80"/>
    </edge>
    <edge id=":B1_1" function="internal">
        <lane id=":B1_1_0" index="0" speed="13.89" length="20.80" shape="395.20,410.40 395.20,389.60"/>
        <lane id=":B1_1_1" index="1" speed="13.89" length="20.80" shape="398.40,410.40 398.40,389.60"/>
    </edge>
    <edge id=":B1_3" function="internal">
        <lane id=":B1_3_0" index="0" speed="9.26" length="19.35" shape="398.40,410.40 399.15,405.15 401.40,401.40 405.15,399.15 410.40,398.40"/>
    </edge>
    <edge id=":B1_4" function="internal">
        <lane id=":B1_4_0" index="0" speed="6.51" length="9.03" shape="410.40,404.80 407.95,405.15 406.20,406.20 405.15,407.95 404.80,410.40"/>
    </edge>
    <edge id=":B1_5" function="internal">
        <lane id=":B1_5_0" index="0" speed="13.89" length="20.80" shape="410.40,404.80 389.60,404.80"/>
        <lane id=":B1_5_1" index="1" speed="13.89" length="20.80" shape="410.40,401.60 389.60,401.60"/>
    </edge>
    <edge id=":B1_7" function="internal">
        <lane id=":B1_7_0" index="0" speed="9.26" length="19.35" shape="410.40,401.60 405.15,400.85 401.40,398.60 399.15,394.85 398.40,389.60"/>
    </edge>
    <edge id=":B1_8" function="internal">
        <lane id=":B1_8_0" index="0" speed="6.51" length="9.03" shape="404.80,389.60 405.15,392.05 406.20,393.80 407.95,394.85 410.40,395.20"/>
    </edge>
    <edge id=":B1_9" function="internal">
        <lane id=":B1_9_0" index="0" speed="13.89" length="20.80" shape="404.80,389.60 404.80,410.40"/>
        <lane id=":B1_9_1" index="1" speed="13.89" length="20.80" shape="401.60,389.60 401.60,410.40"/>
    </edge>
    <edge id=":B1_11" function="internal">
        <lane id=":B1_11_0" index="0" speed="9.26" length="19.35" shape="401.60,389.60 400.85,394.85 398.60,398.60 394.85,400.85 389.60,401.60"/>
    </edge>
    <edge id=":B1_12" function="internal">
        <lane id=":B1_12_0" index="0" speed="6.51" length="9.03" shape="389.60,395.20 392.05,394.85 393.80,393.80 394.85,392.05 395.20,389.60"/>
    </edge>
    <edge id=":B1_13" function="internal">
        <lane id=":B1_13_0" index="0" speed="13.89" length="20.80" shape="389.60,395.20 410.40,395.20"/>
        <lane id=":B1_13_1" index="1" speed="13.89" length="20.80" shape="389.60,398.40 410.40,398.40"/>
    </edge>
    <edge id=":B1_15" function="internal">
        <lane id=":B1_15_0" index="0" speed="9.26" length="19.35" shape="389.60,398.40 394.85,399.15 398.60,401.40 400.85,405.15 401.60,410.40"/>
    </edge>
    <edge id=":B2_0" function="internal">
        <lane id=":B2_0_0" index="0" speed="6.51" length="9.03" shape="395.20,560.40 394.85,557.95 393.80,556.20 392.05,555.15 389.60,554.80"/>
    </edge>
    <edge id=":B2_1" function="internal">
        <lane id=":B2_1_0" index="0" speed="13.89" length="20.80" shape="395.20,560.40 395.20,539.60"/>
        <lane id=":B2_1_1" index="1" speed="13.89" length="20.80" shape="398.40,560.40 398.40,539.60"/>
    </edge>
    <edge id=":B2_3" function="internal">
        <lane id=":B2_3_0" index="0" speed="9.26" length="19.35" shape="398.40,560.40 399.15,555.15 401.40,551.40 405.15,549.15 410.40,548.40"/>
    </edge>
    <edge id=":B2_4" function="internal">
        <lane id=":B2_4_0" index="0" speed="6.51" length="9.03" shape="410.40,554.80 407.95,555.15 406.20,556.20 405.15,557.95 404.80,560.40"/>
    </edge>
    <edge id=":B2_5" function="internal">
        <lane id=":B2_5_0" index="0" speed="13.89" length="20.80" shape="410.40,554.80 389.60,554.80"/>
        <lane id=":B2_5_1" index="1" speed="13.89" length="20.80" shape="410.40,551.60 389.60,551.60"/>
    </edge>
    <edge id=":B2_7" function="internal">
        <lane id=":B2_7_0" index="0" speed="9.26" length="19.35" shape="410.40,551.60 405.15,550.85 401.40,548.60 399.15,544.85 398.40,539.60"/>
    </edge>
    <edge id=":B2_8" function="internal">
        <lane id=":B2_8_0" index="0" speed="6.51" length="9.03" shape="404.80,539.60 405.15,542.05 406.20,543.80 407.95,544.85 410.40,545.20"/>
    </edge>
    <edge id=":B2_9" function="internal">
        <lane id=":B2_9_0" index="0" speed="13.89" length="20.80" shape="404.80,539.60 404.80,560.40"/>
        <lane id=":B2_9_1" index="1" speed="13.89" length="20.80" shape="401.60,539.60 401.60,560.40"/>
    </edge>
    <edge id=":B2_11" function="internal">
        <lane id=":B2_11_0" index="0" speed="9.26" length="19.35" shape="401.60,539.60 400.85,544.85 398.60,548.60 394.85,550.85 389.60,551.60"/>
    </edge>
    <edge id=":B2_12" function="internal">
        <lane id=":B2_12_0" index="0" speed="6.51" length="9.03" shape="389.60,545.20 392.05,544.85 393.80,543.80 394.85,542.05 395.20,539.60"/>
    </edge>
    <edge id=":B2_13" function="internal">
        <lane id=":B2_13_0" index="0" speed="13.89" length="20.80" shape="389.60,545.20 410.40,545.20"/>
        <lane id=":B2_13_1" index="1" speed="13.89" length="20.80" shape="389.60,548.40 410.40,548.40"/>
    </edge>
    <edge id=":B2_15" function="internal">
        <lane id=":B2_15_0" index="0" speed="9.26" length="19.35" shape="389.60,548.40 394.85,549.15 398.60,551.40 400.85,555.15 401.60,560.40"/>
    </edge>
    <edge id=":B3_0" function="internal">
        <lane id=":B3_0_0" index="0" speed="6.51" length="9.03" shape="395.20,710.40 394.85,707.95 393.80,706.20 392.05,705.15 389.60,704.80"/>
    </edge>
    <edge id=":B3_1" function="internal">
        <lane id=":B3_1_0" index="0" speed="13.89" length="20.80" shape="395.20,710.40 395.20,689.60"/>
        <lane id=":B3_1_1" index="1" speed="13.89" length="20.80" shape="398.40,710.40 398.40,689.60"/>
    </edge>
    <edge id=":B3_3" function="internal">
        <lane id=":B3_3_0" index="0" speed="9.26" length="19.35" shape="398.40,710.40 399.15,705.15 401.40,701.40 405.15,699.15 410.40,698.40"/>
    </edge>
    <edge id=":B3_4" function="internal">
        <lane id=":B3_4_0" index="0" speed="6.51" length="9.03" shape="410.40,704.80 407.95,705.15 406.20,706.20 405.15,707.95 404.80,710.40"/>
    </edge>
    <edge id=":B3_5" function="internal">
        <lane id=":B3_5_0" index="0" speed="13.89" length="20.80" shape="410.40,704.80 389.60,704.80"/>
        <lane id=":B3_5_1" index="1" speed="13.89" length="20.80" shape="410.40,701.60 389.60,701.60"/>
    </edge>
    <edge id=":B3_7" function="internal">
        <lane id=":B3_7_0" index="0" speed="9.26" length="19.35" shape="410.40,701.60 405.15,700.85 401.40,698.60 399.15,694.85 398.40,689.60"/>
    </edge>
    <edge id=":B3_8" function="internal">
        <lane id=":B3_8_0" index="0" speed="6.51" length="9.03" shape="404.80,689.60 405.15,692.05 406.20,693.80 407.95,694.85 410.40,695.20"/>
    </edge>
    <edge id=":B3_9" function="internal">
        <lane id=":B3_9_0" index="0" speed="13.89" length="20.80" shape="404.80,689.60 404.80,710.40"/>
        <lane id=":B3_9_1" index="1" speed="13.89" length="20.80" shape="401.60,689.60 401.60,710.40"/>
    </edge>
    <edge id=":B3_11" function="internal">
        <lane id=":B3_11_0" index="0" speed="9.26" length="19.35" shape="401.60,689.60 400.85,694.85 398.60,698.60 394.85,700.85 389.60,701.60"/>
    </edge>
    <edge id=":B3_12" function="internal">
        <lane id=":B3_12_0" index="0" speed="6.51" length="9.03" shape="389.60,695.20 392.05,694.85 393.80,693.80 394.85,692.05 395.20,689.60"/>
    </edge>
    <edge id=":B3_13" function="internal">
        <lane id=":B3_13_0" index="0" speed="13.89" length="20.80" shape="389.60,695.20 410.40,695.20"/>
        <lane id=":B3_13_1" index="1" speed="13.89" length="20.80" shape="389.60,698.40 410.40,698.40"/>
    </edge>
    <edge id=":B3_15" function="internal">
        <lane id=":B3_15_0" index="0" speed="9.26" length="19.35" shape="389.60,698.40 394.85,699.15 398.60,701.40 400.85,705.15 401.60,710.40"/>
    </edge>
    <edge id=":C0_0" function="internal">
        <lane id=":C0_0_0" index="0" speed="6.51" length="9.03" shape="545.20,260.40 544.85,257.95 543.80,256.20 542.05,255.15 539.60,254.80"/>
    </edge>
    <edge id=":C0_1" function="internal">
        <lane id=":C0_1_0" index="0" speed="13.89" length="20.80" shape="545.20,260.40 545.20,239.60"/>
        <lane id=":C0_1_1" index="1" speed="13.89" length="20.80" shape="548.40,260.40 548.40,239.60"/>
    </edge>
    <edge id=":C0_3" function="internal">
        <lane id=":C0_3_0" index="0" speed="9.26" length="19.35" shape="548.40,260.40 549.15,255.15 551.40,251.40 555.15,249.15 560.40,248.40"/>
    </edge>
    <edge id=":C0_4" function="internal">
        <lane id=":C0_4_0" index="0" speed="6.51" length="9.03" shape="560.40,254.80 557.95,255.15 556.20,256.20 555.15,257.95 554.80,260.40"/>
    </edge>
    <edge id=":C0_5" function="internal">
        <lane id=":C0_5_0" index="0" speed="13.89" length="20.80" shape="560.40,254.80 539.60,254.80"/>
        <lane id=":C0_5_1" index="1" speed="13.89" length="20.80" shape="560.40,251.60 539.60,251.60"/>
    </edge>
    <edge id=":C0_7" function="internal">
        <lane id=":C0_7_0" index="0" speed="9.26" length="19.35" shape="560.40,251.60 555.15,250.85 551.40,248.60 549.15,244.85 548.40,239.60"/>
    </edge>
    <edge id=":C0_8" function="internal">
        <lane id=":C0_8_0" index="0" speed="6.51" length="9.03" shape="554.80,239.60 555.15,242.05 556.20,243.80 557.95,244.85 560.40,245.20"/>
    </edge>
    <edge id=":C0_9" function="internal">
        <lane id=":C0_9_0" index="0" speed="13.89" length="20.80" shape="554.80,239.60 554.80,260.40"/>
        <lane id=":C0_9_1" index="1" speed="13.89" length="20.80" shape="551.60,239.60 551.60,260.40"/>
    </edge>
    <edge id=":C0_11" function="internal">
        <lane id=":C0_11_0" index="0" speed="9.26" length="19.35" shape="551.60,239.60 550.85,244.85 548.60,248.60 544.85,250.85 539.60,251.60"/>
    </edge>
    <edge id=":C0_12" function="internal">
        <lane id=":C0_12_0" index="0" speed="6.51" length="9.03" shape="539.60,245.20 542.05,244.85 543.80,243.80 544.85,242.05 545.20,239.60"/>
    </edge>
    <edge id=":C0_13" function="internal">
        <lane id=":C0_13_0" index="0" speed="13.89" length="20.80" shape="539.60,245.20 560.40,245.20"/>
        <lane id=":C0_13_1" index="1" speed="13.89" length="20.80" shape="539.60,248.40 560.40,248.40"/>
    </edge>
    <edge id=":C0_15" function="internal">
        <lane id=":C0_15_0" index="0" speed="9.26" length="19.35" shape="539.60,248.40 544.85,249.15 548.60,251.40 550.85,255.15 551.60,260.40"/>
    </edge>
    <edge id=":C1_0" function="internal">
        <lane id=":C1_0_0" index="0" speed="6.51" length="9.03" shape="545.20,410.40 544.85,407.95 543.80,406.20 542.05,405.15 539.60,404.80"/>
    </edge>
    <edge id=":C1_1" function="internal">
        <lane id=":C1_1_0" index="0" speed="13.89" length="20.80" shape="545.20,410.40 545.20,389.60"/>
        <lane id=":C1_1_1" index="1" speed="13.89" length="20.80" shape="548.40,410.40 548.40,389.60"/>
    </edge>
    <edge id=":C1_3" function="internal">
        <lane id=":C1_3_0" index="0" speed="9.26" length="19.35" shape="548.40,410.40 549.15,405.15 551.40,401.40 555.15,399.15 560.40,398.40"/>
    </edge>
    <edge id=":C1_4" function="internal">
        <lane id=":C1_4_0" index="0" speed="6.51" length="9.03" shape="560.40,404.80 557.95,405.15 556.20,406.20 555.15,407.95 554.80,410.40"/>
    </edge>
    <edge id=":C1_5" function="internal">
        <lane id=":C1_5_0" index="0" speed="13.89" length="20.80" shape="560.40,404.80 539.60,404.80"/>
        <lane id=":C1_5_1" index="1" speed="13.89" length="20.80" shape="560.40,401.60 539.60,401.60"/>
    </edge>
    <edge id=":C1_7" function="internal">
        <lane id=":C1_7_0" index="0" speed="9.26" length="19.35" shape="560.40,401.60 555.15,400.85 551.40,398.60 549.15,394.85 548.40,389.60"/>
    </edge>
    <edge id=":C1_8" function="internal">
        <lane id=":C1_8_0" index="0" speed="6.51" length="9.03" shape="554.80,389.60 555.15,392.05 556.20,393.80 557.95,394.85 560.40,395.20"/>
    </edge>
    <edge id=":C1_9" function="internal">
        <lane id=":C1_9_0" index="0" speed="13.89" length="20.80" shape="554.80,389.60 554.80,410.40"/>
        <lane id=":C1_9_1" index="1" speed="13.89" length="20.80" shape="551.60,389.60 551.60,410.40"/>
    </edge>
    <edge id=":C1_11" function="internal">
        <lane id=":C1_11_0" index="0" speed="9.26" length="19.35" shape="551.60,389.60 550.85,394.85 548.60,398.60 544.85,400.85 539.60,401.60"/>
    </edge>
    <edge id=":C1_12" function="internal">
        <lane id=":C1_12_0" index="0" speed="6.51" length="9.03" shape="539.60,395.20 542.05,394.85 543.80,393.80 544.85,392.05 545.20,389.60"/>
    </edge>
    <edge id=":C1_13" function="internal">
        <lane id=":C1_13_0" index="0" speed="13.89" length="20.80" shape="539.60,395.20 560.40,395.20"/>
        <lane id=":C1_13_1" index="1" speed="13.89" length="20.80" shape="539.60,398.40 560.40,398.40"/>
    </edge>
    <edge id=":C1_15" function="internal">
        <lane id=":C1_15_0" index="0" speed="9.26" length="19.35" shape="539.60,398.40 544.85,399.15 548.60,401.40 550.85,405.15 551.60,410.40"/>
    </edge>
    <edge id=":C2_0" function="internal">
        <lane id=":C2_0_0" index="0" speed="6.51" length="9.03" shape="545.20,560.40 544.85,557.95 543.80,556.20 542.05,555.15 539.60,554.80"/>
    </edge>
    <edge id=":C2_1" function="internal">
        <lane id=":C2_1_0" index="0" speed="13.89" length="20.80" shape="545.20,560.40 545.20,539.60"/>
        <lane id=":C2_1_1" index="1" speed="13.89" length="20.80" shape="548.40,560.40 548.40,539.60"/>
    </edge>
    <edge id=":C2_3" function="internal">
        <lane id=":C2_3_0" index="0" speed="9.26" length="19.35" shape="548.40,560.40 549.15,555.15 551.40,551.40 555.15,549.15 560.40,548.40"/>
    </edge>
    <edge id=":C2_4" function="internal">
        <lane id=":C2_4_0" index="0" speed="6.51" length="9.03" shape="560.40,554.80 557.95,555.15 556.20,556.20 555.15,557.95 554.80,560.40"/>
    </edge>
    <edge id=":C2_5" function="internal">
        <lane id=":C2_5_0" index="0" speed="13.89" length="20.80" shape="560.40,554.80 539.60,554.80"/>
        <lane id=":C2_5_1" index="1" speed="13.89" length="20.80" shape="560.40,551.60 539.60,551.60"/>
    </edge>
    <edge id=":C2_7" function="internal">
        <lane id=":C2_7_0" index="0" speed="9.26" length="19.35" shape="560.40,551.60 555.15,550.85 551.40,548.60 549.15,544.85 548.40,539.60"/>
    </edge>
    <edge id=":C2_8" function="internal">
        <lane id=":C2_8_0" index="0" speed="6.51" length="9.03" shape="554.80,539.60 555.15,542.05 556.20,543.80 557.95,544.85 560.40,545.20"/>
    </edge>
    <edge id=":C2_9" function="internal">
        <lane id=":C2_9_0" index="0" speed="13.89" length="20.80" shape="554.80,539.60 554.80,560.40"/>
        <lane id=":C2_9_1" index="1" speed="13.89" length="20.80" shape="551.60,539.60 551.60,560.40"/>
    </edge>
    <edge id=":C2_11" function="internal">
        <lane id=":C2_11_0" index="0" speed="9.26" length="19.35" shape="551.60,539.60 550.85,544.85 548.60,548.60 544.85,550.85 539.60,551.60"/>
    </edge>
    <edge id=":C2_12" function="internal">
        <lane id=":C2_12_0" index="0" speed="6.51" length="9.03" shape="539.60,545.20 542.05,544.85 543.80,543.80 544.85,542.05 545.20,539.60"/>
    </edge>
    <edge id=":C2_13" function="internal">
        <lane id=":C2_13_0" index="0" speed="13.89" length="20.80" shape="539.60,545.20 560.40,545.20"/>