<?xml version="1.0" encoding="UTF-8"?>

<!-- generated on 2024-12-11 04:03:31.678681 by randomTrips.py UNKNOWN
<configuration>
    <net-file value="4x4.net.xml"/>
    <route-file value="4x4.rou.xml"/>
    <seed value="45"/>
    <end value="100.0"/>
    <period value="0.15"/>
    <random-depart value="True"/>
</configuration>
-->

<routes xmlns:xsi="http://www.w3.org/2001/XMLSchema-instance" xsi:noNamespaceSchemaLocation="http://sumo.dlr.de/xsd/routes_file.xsd">
    <trip id="0" depart="0.05" from="top1B3" to="C0D0"/>
    <trip id="1" depart="0.25" from="C0C1" to="C2B2"/>
    <trip id="2" depart="0.35" from="C3C2" to="D0D1"/>
    <trip id="3" depart="0.45" from="C1D1" to="C1D1"/>
    <trip id="4" depart="0.60" from="D0C0" to="C3B3"/>
    <trip id="5" depart="1.05" from="B3B2" to="D0right0"/>
    <trip id="6" depart="1.10" from="D1D2" to="C3C2"/>
    <trip id="7" depart="1.10" from="C3C2" to="B2C2"/>
    <trip id="8" depart="1.15" from="B2B1" to="C2D2"/>
    <trip id="9" depart="1.15" from="A1A0" to="B0B1"/>
    <trip id="10" depart="1.45" from="A2B2" to="C2B2"/>
    <trip id="11" depart="1.85" from="right0D0" to="A3left3"/>
    <trip id="12" depart="2.20" from="D2D1" to="B1C1"/>
    <trip id="13" depart="2.25" from="C3C2" to="A0B0"/>
    <trip id="14" depart="2.25" from="C2B2" to="B0B1"/>
    <trip id="15" depart="2.30" from="C3C2" to="B0bottom1"/>
    <trip id="16" depart="2.35" from="top3D3" to="A0bottom0"/>
    <trip id="17" depart="2.40" from="bottom1B0" to="C2C3"/>
    <trip id="18" depart="2.65" from="A0B0" to="C0D0"/>
    <trip id="19" depart="2.75" from="B1B0" to="D0D1"/>
    <trip id="20" depart="2.85" from="C2B2" to="A2A3"/>
    <trip id="21" depart="2.95" from="B0B1" to="B0B1"/>
    <trip id="22" depart="3.15" from="B3B2" to="D2D1"/>
    <trip id="23" depart="3.85" from="left3A3" to="A2left2"/>
    <trip id="24" depart="3.95" from="top0A3" to="B3C3"/>
    <trip id="25" depart="4.10" from="C0B0" to="D3C3"/>
    <trip id="26" depart="4.15" from="C1D1" to="A1A0"/>
    <trip id="27" depart="4.30" from="C0D0" to="A1left1"/>
    <trip id="28" depart="4.50" from="D2C2" to="D3right3"/>
    <trip id="29" depart="4.65" from="bottom1B0" to="D2D1"/>
    <trip id="30" depart="4.70" from="A0B0" to="B2A2"/>
    <trip id="31" depart="5.05" from="A0A1" to="C1C0"/>
    <trip id="32" depart="5.30" from="A2A1" to="C0C1"/>
    <trip id="33" depart="5.35" from="D1D2" to="D1C1"/>
    <trip id="34" depart="5.35" from="D1D2" to="C0B0"/>
    <trip id="35" depart="5.45" from="bottom3D0" to="A3left3"/>
    <trip id="36" depart="5.75" from="top1B3" to="A3A2"/>
    <trip id="37" depart="5.80" from="C0C1" to="A2A1"/>
    <trip id="38" depart="5.80" from="B3B2" to="C1C0"/>
    <trip id="39" depart="6.20" from="B2C2" to="B0C0"/>
    <trip id="40" depart="6.50" from="B1B0" to="D1right1"/>
    <trip id="41" depart="6.55" from="D0C0" to="D1D2"/>
    <trip id="42" depart="6.60" from="B1B2" to="B1B0"/>
    <trip id="43" depart="6.65" from="B2B1" to="D2D3"/>
    <trip id="44" depart="6.70" from="C3C2" to="C1C0"/>
    <trip id="45" depart="6.85" from="bottom2C0" to="C1C2"/>
    <trip id="46" depart="7.10" from="C0D0" to="A2A3"/>
    <trip id="47" depart="7.30" from="A1A0" to="B0B1"/>
    <trip id="48" depart="7.30" from="B0B1" to="A2B2"/>
    <trip id="49" depart="7.35" from="A1A0" to="D0bottom3"/>
    <trip id="50" depart="7.50" from="C0C1" to="A0left0"/>
    <trip id="51" depart="7.65" from="C2D2" to="B0A0"/>
    <trip id="52" depart="7.70" from="bottom0A0" to="D3C3"/>
    <trip id="53" depart="7.70" from="right1D1" to="D1C1"/>
    <trip id="54" depart="7.75" from="B3B2" to="A2A3"/>
    <trip id="55" depart="8.05" from="B1A1" to="C3B3"/>
    <trip id="56" depart="8.10" from="A0B0" to="B1B0"/>
    <trip id="57" depart="8.15" from="A2A3" to="B2A2"/>
    <trip id="58" depart="8.20" from="bottom3D0" to="D3D2"/>
    <trip id="59" depart="8.20" from="A0B0" to="C1D1"/>
    <trip id="60" depart="8.30" from="A1A0" to="D3C3"/>
    <trip id="61" depart="8.60" from="D3D2" to="A2A1"/>
    <trip id="62" depart="8.65" from="C0B0" to="D2D1"/>
    <trip id="63" depart="8.65" from="left3A3" to="C0D0"/>
    <trip id="64" depart="8.85" from="B2A2" to="C2C1"/>
    <trip id="65" depart="8.85" from="C1C2" to="B0A0"/>
    <trip id="66" depart="9.15" from="C0B0" to="C0C1"/>
    <trip id="67" depart="9.15" from="bottom3D0" to="D2D3"/>
    <trip id="68" depart="9.15" from="B3B2" to="C3top2"/>
    <trip id="69" depart="9.30" from="C2C3" to="B2B3"/>
    <trip id="70" depart="9.70" from="C1C2" to="A3B3"/>
    <trip id="71" depart="9.80" from="left2A2" to="C3D3"/>
    <trip id="72" depart="10.05" from="A2A1" to="A3A2"/>
    <trip id="73" depart="10.55" from="D1D0" to="C0D0"/>
    <trip id="74" depart="10.70" from="bottom0A0" to="D3right3"/>
    <trip id="75" depart="10.75" from="C0C1" to="C3top2"/>
    <trip id="76" depart="10.90" from="A0B0" to="C0D0"/>
    <trip id="77" depart="10.95" from="B3C3" to="A0A1"/>
    <trip id="78" depart="11.00" from="C2C1" to="A3top0"/>
    <trip id="79" depart="11.30" from="bottom1B0" to="B3C3"/>
    <trip id="80" depart="11.35" from="A1A0" to="C2C1"/>
    <trip id="81" depart="11.35" from="right3D3" to="B1A1"/>
    <trip id="82" depart="11.70" from="A2B2" to="D1right1"/>
    <trip id="83" depart="12.15" from="top2C3" to="D2right2"/>
    <trip id="84" depart="12.20" from="A3A2" to="D1right1"/>
    <trip id="85" depart="12.25" from="top1B3" to="A3A2"/>
    <trip id="86" depart="12.30" from="D0C0" to="C0bottom2"/>
    <trip id="87" depart="12.45" from="B3C3" to="C0B0"/>
    <trip id="88" depart="12.55" from="A1A0" to="A2A3"/>
    <trip id="89" depart="12.80" from="C1B1" to="D0D1"/>
    <trip id="90" depart="12.95" from="left0A0" to="C1C0"/>
    <trip id="91" depart="13.00" from="left3A3" to="D1D2"/>
    <trip id="92" depart="13.15" from="D3D2" to="D2D1"/>
    <trip id="93" depart="13.25" from="A0B0" to="B1B0"/>
    <trip id="94" depart="13.30" from="A1A2" to="A2A3"/>
    <trip id="95" depart="13.30" from="C2C3" to="C2B2"/>
    <trip id="96" depart="13.50" from="right1D1" to="D0right0"/>
    <trip id="97" depart="13.50" from="B3C3" to="D1D0"/>
    <trip id="98" depart="13.85" from="B0A0" to="D1D0"/>
    <trip id="99" depart="13.90" from="B0A0" to="C0B0"/>
    <trip id="100" depart="14.20" from="C1D1" to="D0bottom3"/>
    <trip id="101" depart="14.80" from="A1B1" to="A3A2"/>
    <trip id="102" depart="15.10" from="C1C0" to="C0D0"/>
    <trip id="103" depart="15.10" from="D0C0" to="D3top3"/>
    <trip id="104" depart="15.10" from="A2A1" to="D2D3"/>
    <trip id="105" depart="15.40" from="B2A2" to="B0A0"/>
    <trip id="106" depart="15.40" from="bottom3D0" to="B2A2"/>
    <trip id="107" depart="15.55" from="D3D2" to="A2A1"/>
    <trip id="108" depart="15.70" from="C2C1" to="D3right3"/>
    <trip id="109" depart="16.00" from="B1B0" to="B0A0"/>
    <trip id="110" depart="16.10" from="B3C3" to="A0B0"/>
    <trip id="111" depart="16.15" from="C0B0" to="C0B0"/>
    <trip id="112" depart="16.15" from="right3D3" to="A0left0"/>
    <trip id="113" depart="16.20" from="C2D2" to="D1C1"/>
    <trip id="114" depart="16.25" from="left2A2" to="C3B3"/>
    <trip id="115" depart="16.30" from="C3D3" to="A1A2"/>
    <trip id="116" depart="16.40" from="A3B3" to="A2B2"/>
    <trip id="117" depart="16.45" from="bottom0A0" to="B0C0"/>
    <trip id="118" depart="16.50" from="C1B1" to="D2D3"/>
    <trip id="119" depart="17.10" from="left1A1" to="C1C2"/>
    <trip id="120" depart="17.15" from="C1D1" to="C0B0"/>
    <trip id="121" depart="17.35" from="C0C1" to="C1C2"/>
    <trip id="122" depart="17.55" from="right2D2" to="D0C0"/>
    <trip id="123" depart="17.90" from="left1A1" to="B3top1"/>
    <trip id="124" depart="17.95" from="B2B1" to="B2C2"/>
    <trip id="125" depart="18.45" from="C2B2" to="A3top0"/>
    <trip id="126" depart="18.55" from="B2C2" to="A2A3"/>
    <trip id="127" depart="18.60" from="A3A2" to="A0bottom0"/>
    <trip id="128" depart="18.80" from="top3D3" to="B0C0"/>
    <trip id="129" depart="18.80" from="B2A2" to="A2B2"/>
    <trip id="130" depart="18.85" from="D1D0" to="A0left0"/>
    <trip id="131" depart="18.85" from="C3B3" to="C3D3"/>
    <trip id="132" depart="18.90" from="C0C1" to="B3C3"/>
    <trip id="133" depart="19.00" from="top0A3" to="A0B0"/>
    <trip id="134" depart="19.60" from="bottom0A0" to="A1left1"/>
    <trip id="135" depart="20.15" from="B2C2" to="B0C0"/>
    <trip id="136" depart="20.20" from="C2C1" to="C3B3"/>
    <trip id="137" depart="20.25" from="top3D3" to="A3A2"/>
    <trip id="138" depart="20.25" from="C1D1" to="B0B1"/>
    <trip id="139" depart="20.35" from="B1C1" to="C3D3"/>
    <trip id="140" depart="20.50" from="C2B2" to="B2B3"/>
    <trip id="141" depart="20.70" from="A3B3" to="A1A0"/>
    <trip id="142" depart="21.00" from="B1B2" to="D1C1"/>
    <trip id="143" depart="21.65" from="D2C2" to="B1B2"/>
    <trip id="144" depart="21.75" from="B3B2" to="C2B2"/>
    <trip id="145" depart="21.85" from="A0B0" to="C3D3"/>
    <trip id="146" depart="21.95" from="B2B1" to="A0A1"/>
    <trip id="147" depart="22.00" from="D1D2" to="B2B1"/>
    <trip id="148" depart="22.05" from="C1B1" to="C2C3"/>
    <trip id="149" depart="22.30" from="D2C2" to="D2C2"/>
    <trip id="150" depart="22.30" from="bottom3D0" to="A0left0"/>
    <trip id="151" depart="22.45" from="C3C2" to="A0left0"/>
    <trip id="152" depart="22.45" from="C2C1" to="D0bottom3"/>
    <trip id="153" depart="22.45" from="D3D2" to="C2C1"/>
    <trip id="154" depart="22.50" from="D2D1" to="C1C2"/>
    <trip id="155" depart="22.85" from="D0C0" to="D3right3"/>
    <trip id="156" depart="22.85" from="B3A3" to="B0B1"/>
    <trip id="157" depart="22.90" from="right3D3" to="A0B0"/>
    <trip id="158" depart="23.15" from="D1C1" to="D3right3"/>
    <trip id="159" depart="23.15" from="B0B1" to="A2A3"/>
    <trip id="160" depart="23.25" from="A3B3" to="C1C2"/>
    <trip id="161" depart="23.35" from="B2B3" to="A0B0"/>
    <trip id="162" depart="23.75" from="B0B1" to="D0D1"/>
    <trip id="163" depart="23.90" from="B1A1" to="C0B0"/>
    <trip id="164" depart="24.10" from="bottom2C0" to="B0B1"/>
    <trip id="165" depart="24.20" from="B3A3" to="A2B2"/>
    <trip id="166" depart="24.25" from="A1B1" to="B2B3"/>
    <trip id="167" depart="24.40" from="B1C1" to="D0C0"/>
    <trip id="168" depart="24.40" from="C2C3" to="C1B1"/>
    <trip id="169" depart="24.45" from="C1D1" to="A2B2"/>
    <trip id="170" depart="24.65" from="C2C3" to="D1right1"/>
    <trip id="171" depart="24.80" from="D1D2" to="B0C0"/>
    <trip id="172" depart="24.95" from="D3D2" to="B0bottom1"/>
    <trip id="173" depart="25.20" from="A2B2" to="B3A3"/>
    <trip id="174" depart="25.25" from="B2C2" to="C1C0"/>
    <trip id="175" depart="25.30" from="D1C1" to="A3B3"/>
    <trip id="176" depart="25.30" from="D3C3" to="A1left1"/>
    <trip id="177" depart="25.35" from="top1B3" to="A2B2"/>
    <trip id="178" depart="25.50" from="A1B1" to="B0bottom1"/>
    <trip id="179" depart="25.65" from="C0D0" to="A1A0"/>
    <trip id="180" depart="25.75" from="D3D2" to="A2A1"/>
    <trip id="181" depart="26.25" from="B0A0" to="D1right1"/>
    <trip id="182" depart="26.60" from="C2B2" to="B1A1"/>
    <trip id="183" depart="26.75" from="right2D2" to="C1C0"/>
    <trip id="184" depart="26.75" from="B1C1" to="B1B0"/>
    <trip id="185" depart="26.80" from="B0B1" to="D3right3"/>
    <trip id="186" depart="26.90" from="C3B3" to="C3B3"/>
    <trip id="187" depart="27.00" from="B1C1" to="D3top3"/>
    <trip id="188" depart="27.05" from="bottom3D0" to="B3A3"/>
    <trip id="189" depart="27.25" from="B3C3" to="D3right3"/>
    <trip id="190" depart="27.40" from="D1D0" to="D1C1"/>
    <trip id="191" depart="27.55" from="C3D3" to="A1A0"/>
    <trip id="192" depart="27.65" from="B0C0" to="B1A1"/>
    <trip id="193" depart="27.70" from="C3C2" to="D2right2"/>
    <trip id="194" depart="28.00" from="A1B1" to="B2B1"/>
    <trip id="195" depart="28.05" from="D1D2" to="D3top3"/>
    <trip id="196" depart="28.10" from="B2B1" to="C2C3"/>
    <trip id="197" depart="28.15" from="A1B1" to="B0C0"/>
    <trip id="198" depart="28.25" from="D1C1" to="C2B2"/>
    <trip id="199" depart="28.30" from="D3C3" to="C0C1"/>
    <trip id="200" depart="28.45" from="C0D0" to="B1B2"/>
    <trip id="201" depart="28.55" from="top3D3" to="A0bottom0"/>
    <trip id="202" depart="28.75" from="C1C0" to="B1B0"/>
    <trip id="203" depart="28.80" from="B2A2" to="C1C2"/>
    <trip id="204" depart="28.90" from="right3D3" to="C2B2"/>
    <trip id="205" depart="29.05" from="C0C1" to="D2D3"/>
    <trip id="206" depart="29.15" from="B1B0" to="C2C1"/>
    <trip id="207" depart="29.20" from="D1C1" to="D3D2"/>
    <trip id="208" depart="29.20" from="A3A2" to="C3B3"/>
    <trip id="209" depart="29.20" from="B0B1" to="A0left0"/>
    <trip id="210" depart="29.40" from="B0B1" to="C2D2"/>
    <trip id="211" depart="29.40" from="B3C3" to="C3C2"/>
    <trip id="212" depart="29.50" from="D2C2" to="C1C0"/>
    <trip id="213" depart="29.95" from="A3A2" to="B2A2"/>
    <trip id="214" depart="30.00" from="top2C3" to="A2A1"/>
    <trip id="215" depart="30.10" from="A1B1" to="A0A1"/>
    <trip id="216" depart="30.20" from="B1B2" to="B1A1"/>
    <trip id="217" depart="30.45" from="C1C2" to="C2C1"/>
    <trip id="218" depart="30.50" from="left2A2" to="A3A2"/>
    <trip id="219" depart="30.50" from="bottom3D0" to="D2right2"/>
    <trip id="220" depart="30.55" from="C2D2" to="C0D0"/>
    <trip id="221" depart="31.00" from="D0C0" to="C2C3"/>
    <trip id="222" depart="31.20" from="B0C0" to="D1D0"/>
    <trip id="223" depart="31.30" from="D0D1" to="D1D0"/>
    <trip id="224" depart="31.50" from="D2C2" to="A0left0"/>
    <trip id="225" depart="31.80" from="right1D1" to="B0bottom1"/>
    <trip id="226" depart="32.05" from="B1B0" to="B2B1"/>
    <trip id="227" depart="32.15" from="C3B3" to="D3right3"/>
    <trip id="228" depart="32.25" from="D0C0" to="C1C2"/>
    <trip id="229" depart="32.80" from="top3D3" to="C1D1"/>
    <trip id="230" depart="32.85" from="C1C0" to="B2C2"/>
    <trip id="231" depart="33.00" from="C1B1" to="B0B1"/>
    <trip id="232" depart="33.05" from="B1A1" to="A1A2"/>
    <trip id="233" depart="33.10" from="A0A1" to="B3B2"/>
    <trip id="234" depart="33.15" from="top1B3" to="A3B3"/>
    <trip id="235" depart="33.20" from="A3A2" to="A3B3"/>
    <trip id="236" depart="33.60" from="A0B0" to="B0A0"/>
    <trip id="237" depart="33.85" from="top3D3" to="C1B1"/>
    <trip id="238" depart="33.85" from="B3B2" to="A0left0"/>
    <trip id="239" depart="34.15" from="B2A2" to="B2A2"/>
    <trip id="240" depart="34.35" from="left2A2" to="C1B1"/>
    <trip id="241" depart="34.35" from="C2B2" to="C2B2"/>
    <trip id="242" depart="34.40" from="A0B0" to="A0bottom0"/>
    <trip id="243" depart="34.50" from="B2C2" to="B1A1"/>
    <trip id="244" depart="34.50" from="top3D3" to="D1D2"/>
    <trip id="245" depart="34.65" from="right3D3" to="C3D3"/>
    <trip id="246" depart="34.80" from="right2D2" to="D3top3"/>
    <trip id="247" depart="34.95" from="A0A1" to="D3C3"/>
    <trip id="248" depart="35.05" from="C2C3" to="B0C0"/>
    <trip id="249" depart="35.40" from="right0D0" to="C2D2"/>
    <trip id="250" depart="35.60" from="D3C3" to="D1D0"/>
    <trip id="251" depart="36.00" from="A2A1" to="C0B0"/>
    <trip id="252" depart="36.00" from="C3B3" to="A2B2"/>
    <trip id="253" depart="36.00" from="C1C0" to="C0B0"/>
    <trip id="254" depart="36.20" from="left2A2" to="D0bottom3"/>
    <trip id="255" depart="36.25" from="top0A3" to="A1A0"/>
    <trip id="256" depart="36.30" from="left2A2" to="A3top0"/>
    <trip id="257" depart="36.75" from="left0A0" to="B0A0"/>
    <trip id="258" depart="36.75" from="right1D1" to="D0right0"/>
    <trip id="259" depart="37.45" from="B0A0" to="D1D0"/>
    <trip id="260" depart="37.90" from="B0C0" to="A2A1"/>
    <trip id="261" depart="37.95" from="C1C0" to="D1C1"/>
    <trip id="262" depart="38.05" from="C2C3" to="D0D1"/>
    <trip id="263" depart="38.10" from="D1C1" to="D0D1"/>
    <trip id="264" depart="38.15" from="D3C3" to="A0bottom0"/>
    <trip id="265" depart="38.25" from="bottom1B0" to="B3C3"/>
    <trip id="266" depart="38.35" from="A0B0" to="B0B1"/>
    <trip id="267" depart="38.75" from="D2C2" to="A1B1"/>
    <trip id="268" depart="38.80" from="A3B3" to="C2B2"/>
    <trip id="269" depart="39.25" from="B3A3" to="B0B1"/>
    <trip id="270" depart="39.25" from="D2D1" to="B2B3"/>
    <trip id="271" depart="39.25" from="top1B3" to="D2C2"/>
    <trip id="272" depart="39.30" from="C0D0" to="B3B2"/>
    <trip id="273" depart="40.15" from="D0C0" to="A0B0"/>
    <trip id="274" depart="40.35" from="top1B3" to="C3D3"/>
    <trip id="275" depart="41.10" from="B1B2" to="C0B0"/>
    <trip id="276" depart="41.45" from="D2D1" to="D2D3"/>
    <trip id="277" depart="41.55" from="D1C1" to="A2A1"/>
    <trip id="278" depart="41.70" from="A1A2" to="B0bottom1"/>
    <trip id="279" depart="41.75" from="C1D1" to="B0C0"/>
    <trip id="280" depart="41.80" from="top3D3" to="D3right3"/>
    <trip id="281" depart="41.80" from="left0A0" to="C1D1"/>
    <trip id="282" depart="41.90" from="B3C3" to="B0C0"/>
    <trip id="283" depart="42.15" from="B2B3" to="C2C3"/>
    <trip id="284" depart="42.45" from="left0A0" to="B1B2"/>
    <trip id="285" depart="43.10" from="left1A1" to="B1C1"/>
    <trip id="286" depart="43.30" from="A1A2" to="D2C2"/>
    <trip id="287" depart="43.30" from="C2C3" to="C2C1"/>
    <trip id="288" depart="43.35" from="B1B0" to="D0C0"/>
    <trip id="289" depart="43.45" from="B3C3" to="A2A1"/>
    <trip id="290" depart="43.60" from="B2B3" to="A3left3"/>
    <trip id="291" depart="43.65" from="B2C2" to="D2D1"/>
    <trip id="292" depart="43.75" from="B3A3" to="D0D1"/>
    <trip id="293" depart="43.75" from="A1A0" to="C2B2"/>
    <trip id="294" depart="43.75" from="left0A0" to="B1A1"/>
    <trip id="295" depart="43.90" from="B3C3" to="B0B1"/>
    <trip id="296" depart="44.05" from="A0B0" to="C2B2"/>
    <trip id="297" depart="44.15" from="A2A3" to="B1B2"/>
    <trip id="298" depart="44.25" from="D2C2" to="D0right0"/>
    <trip id="299" depart="44.55" from="D1C1" to="D0right0"/>
    <trip id="300" depart="44.60" from="C1C2" to="B0bottom1"/>
    <trip id="301" depart="44.80" from="C0B0" to="A1left1"/>
    <trip id="302" depart="45.25" from="C0B0" to="D3top3"/>
    <trip id="303" depart="45.45" from="D1D0" to="C3B3"/>
    <trip id="304" depart="45.60" from="A1A2" to="D3C3"/>
    <trip id="305" depart="45.70" from="C0D0" to="D1D0"/>
    <trip id="306" depart="45.80" from="right3D3" to="C1C0"/>
    <trip id="307" depart="45.85" from="bottom3D0" to="B1C1"/>
    <trip id="308" depart="45.85" from="D1D2" to="A0bottom0"/>
    <trip id="309" depart="45.85" from="B2C2" to="A0left0"/>
    <trip id="310" depart="46.25" from="bottom1B0" to="B1B2"/>
    <trip id="311" depart="46.35" from="A2B2" to="A0A1"/>
    <trip id="312" depart="46.40" from="top3D3" to="A1A0"/>
    <trip id="313" depart="46.60" from="C1B1" to="C2C3"/>
    <trip id="314" depart="47.90" from="D1D0" to="C1B1"/>
    <trip id="315" depart="48.00" from="D2D1" to="C3D3"/>
    <trip id="316" depart="48.10" from="A3A2" to="A1B1"/>
    <trip id="317" depart="48.50" from="B1C1" to="D3C3"/>
    <trip id="318" depart="48.70" from="C1C2" to="C1C2"/>
    <trip id="319" depart="48.70" from="B0C0" to="C2C3"/>
    <trip id="320" depart="48.70" from="top2C3" to="D0C0"/>
    <trip id="321" depart="48.75" from="A1B1" to="B3C3"/>
    <trip id="322" depart="48.80" from="D2C2" to="D0bottom3"/>
    <trip id="323" depart="48.90" from="D2D1" to="C1B1"/>
    <trip id="324" depart="49.15" from="B1A1" to="A0A1"/>
    <trip id="325" depart="49.45" from="C2C3" to="C2B2"/>
    <trip id="326" depart="49.95" from="left3A3" to="A3left3"/>
    <trip id="327" depart="50.20" from="top2C3" to="C1D1"/>
    <trip id="328" depart="50.30" from="B1C1" to="C0D0"/>
    <trip id="329" depart="50.40" from="D1C1" to="C3top2"/>
    <trip id="330" depart="50.55" from="D1C1" to="A3B3"/>
    <trip id="331" depart="50.90" from="A2B2" to="A3B3"/>
    <trip id="332" depart="51.00" from="B2B1" to="B3B2"/>
    <trip id="333" depart="51.20" from="B2A2" to="C3top2"/>
    <trip id="334" depart="51.20" from="C1C2" to="C2C1"/>
    <trip id="335" depart="51.60" from="D2D3" to="D2right2"/>
    <trip id="336" depart="51.60" from="B2B3" to="D0D1"/>
    <trip id="337" depart="51.70" from="B3C3" to="A3top0"/>
    <trip id="338" depart="51.95" from="D2D3" to="B2B3"/>
    <trip id="339" depart="52.00" from="B0B1" to="B3C3"/>
    <trip id="340" depart="52.15" from="C0C1" to="C2D2"/>
    <trip id="341" depart="52.25" from="A2A3" to="C2D2"/>
    <trip id="342" depart="52.25" from="B0A0" to="B1A1"/>
    <trip id="343" depart="52.40" from="B1C1" to="A2A3"/>
    <trip id="344" depart="52.45" from="B3B2" to="B1B0"/>
    <trip id="345" depart="52.50" from="A3A2" to="A3B3"/>
    <trip id="346" depart="52.50" from="A0B0" to="D1right1"/>
    <trip id="347" depart="52.55" from="B0C0" to="D1right1"/>
    <trip id="348" depart="52.60" from="C2B2" to="B3B2"/>
    <trip id="349" depart="52.60" from="A1B1" to="B0C0"/>
    <trip id="350" depart="52.70" from="left1A1" to="A1B1"/>
    <trip id="351" depart="52.90" from="A0A1" to="A2A3"/>
    <trip id="352" depart="53.05" from="bottom2C0" to="B2C2"/>
    <trip id="353" depart="53.05" from="D2D3" to="D2D3"/>
    <trip id="354" depart="53.20" from="C2D2" to="D0D1"/>
    <trip id="355" depart="53.35" from="top2C3" to="C1C0"/>
    <trip id="356" depart="53.90" from="A3A2" to="C0bottom2"/>
    <trip id="357" depart="53.95" from="C3C2" to="C3B3"/>
    <trip id="358" depart="54.00" from="B0A0" to="D0bottom3"/>
    <trip id="359" depart="54.75" from="D3C3" to="C0B0"/>
    <trip id="360" depart="54.75" from="C3D3" to="B1B0"/>
    <trip id="361" depart="54.80" from="B0A0" to="B3top1"/>
    <trip id="362" depart="54.80" from="top2C3" to="A2A1"/>
    <trip id="363" depart="55.15" from="D2D3" to="A2left2"/>
    <trip id="364" depart="55.50" from="B3B2" to="C3C2"/>
    <trip id="365" depart="55.80" from="C0B0" to="A1left1"/>
    <trip id="366" depart="55.90" from="B3C3" to="B3C3"/>
    <trip id="367" depart="56.00" from="right1D1" to="C0bottom2"/>
    <trip id="368" depart="56.15" from="B0C0" to="D0C0"/>
    <trip id="369" depart="56.20" from="bottom0A0" to="B2A2"/>
    <trip id="370" depart="56.20" from="C1C2" to="B0bottom1"/>
    <trip id="371" depart="56.35" from="A2B2" to="A1left1"/>
    <trip id="372" depart="56.35" from="B2C2" to="D3right3"/>
    <trip id="373" depart="56.40" from="A1B1" to="D2D3"/>
    <trip id="374" depart="56.60" from="C1B1" to="B0bottom1"/>
    <trip id="375" depart="56.80" from="C3C2" to="A0A1"/>
    <trip id="376" depart="57.05" from="A2A1" to="B3B2"/>
    <trip id="377" depart="57.30" from="D3C3" to="D1right1"/>
    <trip id="378" depart="57.35" from="B2B3" to="C2D2"/>
    <trip id="379" depart="57.35" from="right2D2" to="B3A3"/>
    <trip id="380" depart="57.40" from="C2C1" to="D0right0"/>
    <trip id="381" depart="57.70" from="C1C2" to="A3A2"/>
    <trip id="382" depart="57.80" from="right0D0" to="B2C2"/>
    <trip id="383" depart="58.05" from="A2A1" to="C2B2"/>
    <trip id="384" depart="58.15" from="bottom0A0" to="D1C1"/>
    <trip id="385" depart="58.30" from="C2C1" to="D3right3"/>
    <trip id="386" depart="58.40" from="A0A1" to="B2B1"/>
    <trip id="387" depart="58.40" from="C2B2" to="C1C2"/>
    <trip id="388" depart="58.45" from="D1D2" to="A2A3"/>
    <trip id="389" depart="58.80" from="C2B2" to="C0bottom2"/>
    <trip id="390" depart="59.05" from="top0A3" to="B1B0"/>
    <trip id="391" depart="59.25" from="B1B2" to="A0A1"/>
    <trip id="392" depart="59.45" from="right1D1" to="D0bottom3"/>
    <trip id="393" depart="59.60" from="B2C2" to="D2right2"/>
    <trip id="394" depart="59.60" from="C3C2" to="C0C1"/>
    <trip id="395" depart="59.90" from="B2B3" to="B2B1"/>
    <trip id="396" depart="59.95" from="A3B3" to="C2B2"/>
    <trip id="397" depart="60.15" from="bottom3D0" to="D2D3"/>
    <trip id="398" depart="60.35" from="C3B3" to="C2B2"/>
    <trip id="399" depart="60.45" from="B1C1" to="B1B0"/>
    <trip id="400" depart="60.55" from="B0A0" to="D0D1"/>
    <trip id="401" depart="60.60" from="right2D2" to="B3B2"/>
    <trip id="402" depart="60.90" from="D2C2" to="C3D3"/>
    <trip id="403" depart="61.30" from="D2D1" to="D2right2"/>
    <trip id="404" depart="61.30" from="C0C1" to="D3D2"/>
    <trip id="405" depart="61.55" from="C3B3" to="B3C3"/>
    <trip id="406" depart="61.55" from="B0C0" to="B0A0"/>
    <trip id="407" depart="62.05" from="D3D2" to="C3B3"/>
    <trip id="408" depart="62.05" from="D2D1" to="A2B2"/>
    <trip id="409" depart="62.05" from="B2A2" to="D3top3"/>
    <trip id="410" depart="62.15" from="D2D3" to="D0right0"/>
    <trip id="411" depart="62.40" from="top2C3" to="B0B1"/>
    <trip id="412" depart="62.55" from="bottom2C0" to="B0A0"/>
    <trip id="413" depart="62.80" from="A3A2" to="C2B2"/>
    <trip id="414" depart="63.05" from="C1B1" to="A1A2"/>
    <trip id="415" depart="63.15" from="B1B0" to="C3D3"/>
    <trip id="416" depart="63.25" from="D1D0" to="D1C1"/>
    <trip id="417" depart="63.65" from="left3A3" to="D1right1"/>
    <trip id="418" depart="64.25" from="B1B2" to="B0C0"/>
    <trip id="419" depart="64.45" from="B1A1" to="D1D2"/>
    <trip id="420" depart="64.50" from="B2B1" to="D0right0"/>
    <trip id="421" depart="64.55" from="D1C1" to="B1C1"/>
    <trip id="422" depart="64.60" from="right1D1" to="D3right3"/>
    <trip id="423" depart="64.80" from="right2D2" to="D3top3"/>
    <trip id="424" depart="64.95" from="right3D3" to="A3top0"/>
    <trip id="425" depart="65.10" from="B0C0" to="B0B1"/>
    <trip id="426" depart="65.45" from="D3C3" to="B3A3"/>
    <trip id="427" depart="65.60" from="B2B3" to="D0D1"/>
    <trip id="428" depart="65.70" from="D0D1" to="D1C1"/>
    <trip id="429" depart="66.20" from="bottom3D0" to="A0B0"/>
    <trip id="430" depart="66.45" from="C0D0" to="B0bottom1"/>
    <trip id="431" depart="66.45" from="bottom1B0" to="B0A0"/>
    <trip id="432" depart="66.45" from="D0C0" to="D1C1"/>
    <trip id="433" depart="66.60" from="B2B1" to="B3top1"/>
    <trip id="434" depart="66.70" from="B1B0" to="A3top0"/>
    <trip id="435" depart="66.70" from="B1A1" to="B2A2"/>
    <trip id="436" depart="66.90" from="C2B2" to="A3B3"/>
    <trip id="437" depart="66.95" from="C3B3" to="C3C2"/>
    <trip id="438" depart="67.05" from="D2D3" to="D3C3"/>
    <trip id="439" depart="67.35" from="A2A1" to="B1C1"/>
    <trip id="440" depart="67.35" from="D2C2" to="C3top2"/>
    <trip id="441" depart="67.40" from="B0C0" to="C2C1"/>
    <trip id="442" depart="67.45" from="C1B1" to="D2D3"/>
    <trip id="443" depart="67.50" from="top3D3" to="A1A2"/>
    <trip id="444" depart="67.55" from="B3B2" to="C3B3"/>
    <trip id="445" depart="67.55" from="C1B1" to="A3A2"/>
    <trip id="446" depart="67.60" from="C1B1" to="D3top3"/>
    <trip id="447" depart="67.85" from="B1B0" to="C1C0"/>
    <trip id="448" depart="68.00" from="left0A0" to="A1left1"/>
    <trip id="449" depart="68.10" from="top2C3" to="D0bottom3"/>
    <trip id="450" depart="68.20" from="A2A3" to="A1left1"/>
    <trip id="451" depart="68.25" from="D1D2" to="D1C1"/>
    <trip id="452" depart="68.25" from="A0B0" to="A3top0"/>
    <trip id="453" depart="68.40" from="top0A3" to="A2left2"/>
    <trip id="454" depart="68.40" from="C3B3" to="C1C0"/>
    <trip id="455" depart="68.40" from="B2A2" to="A0bottom0"/>
    <trip id="456" depart="68.50" from="right3D3" to="D2right2"/>
    <trip id="457" depart="68.55" from="C1C0" to="B1B2"/>
    <trip id="458" depart="68.60" from="C3C2" to="C2C3"/>
    <trip id="459" depart="68.70" from="left0A0" to="A0bottom0"/>
    <trip id="460" depart="68.70" from="D3C3" to="C3B3"/>
    <trip id="461" depart="68.85" from="D1C1" to="A1left1"/>
    <trip id="462" depart="69.00" from="A2A1" to="A0bottom0"/>
    <trip id="463" depart="69.05" from="C1C0" to="C0C1"/>
    <trip id="464" depart="69.35" from="B1B2" to="B2B3"/>
    <trip id="465" depart="69.40" from="D3D2" to="A3left3"/>
    <trip id="466" depart="69.55" from="right2D2" to="A1A2"/>
    <trip id="467" depart="69.75" from="top0A3" to="A2left2"/>
    <trip id="468" depart="70.00" from="C2C1" to="A1A0"/>
    <trip id="469" depart="70.05" from="C3D3" to="B1B0"/>
    <trip id="470" depart="70.50" from="D3C3" to="B3B2"/>
    <trip id="471" depart="70.65" from="D1C1" to="D3D2"/>
    <trip id="472" depart="70.70" from="B0B1" to="A0A1"/>
    <trip id="473" depart="71.05" from="B3B2" to="C3C2"/>
    <trip id="474" depart="71.05" from="C3B3" to="B3C3"/>
    <trip id="475" depart="71.35" from="B1B2" to="B3B2"/>
    <trip id="476" depart="71.60" from="D2D1" to="B2B3"/>
    <trip id="477" depart="71.65" from="D2C2" to="C2C3"/>
    <trip id="478" depart="71.85" from="D0D1" to="D2right2"/>
    <trip id="479" depart="72.05" from="right1D1" to="C0B0"/>
    <trip id="480" depart="72.10" from="A1B1" to="B3C3"/>
    <trip id="481" depart="72.15" from="B0A0" to="B1B0"/>
    <trip id="482" depart="72.35" from="left1A1" to="C3B3"/>
    <trip id="483" depart="72.45" from="C0B0" to="A1B1"/>
    <trip id="484" depart="72.70" from="B1C1" to="A1A2"/>
    <trip id="485" depart="73.05" from="top0A3" to="D1C1"/>
    <trip id="486" depart="73.30" from="bottom1B0" to="B3top1"/>
    <trip id="487" depart="73.35" from="C1B1" to="A3B3"/>
    <trip id="488" depart="73.60" from="B0A0" to="A3A2"/>
    <trip id="489" depart="73.60" from="C3D3" to="C1B1"/>
    <trip id="490" depart="73.85" from="C1B1" to="B0A0"/>
    <trip id="491" depart="73.85" from="B0B1" to="B3top1"/>
    <trip id="492" depart="74.15" from="right0D0" to="B2A2"/>
    <trip id="493" depart="74.25" from="A1A2" to="C0B0"/>
    <trip id="494" depart="74.25" from="left1A1" to="C2B2"/>
    <trip id="495" depart="74.35" from="C2C1" to="D2D3"/>
    <trip id="496" depart="74.70" from="C1B1" to="D3D2"/>
    <trip id="497" depart="74.80" from="A3B3" to="C1C0"/>