<?xml version="1.0" encoding="UTF-8"?>

<!-- generated on 2024-12-05 19:37:55 by Eclipse SUMO netgenerate Version 1.21.0
<netgenerateConfiguration xmlns:xsi="http://www.w3.org/2001/XMLSchema-instance" xsi:noNamespaceSchemaLocation="http://sumo.dlr.de/xsd/netgenerateConfiguration.xsd">

    <grid_network>
        <grid value="true"/>
        <grid.number value="1"/>
        <grid.length value="150"/>
        <grid.attach-length value="250"/>
    </grid_network>

    <output>
        <output-file value="single-intersection.net.xml"/>
    </output>

    <building_defaults>
        <default.lanenumber value="2"/>
    </building_defaults>

    <tls_building>
        <tls.set value="A0"/>
        <tls.layout value="alternateOneWay"/>
    </tls_building>

    <junctions>
        <no-turnarounds value="true"/>
    </junctions>

</netgenerateConfiguration>
-->

<net version="1.20" junctionCornerDetail="5" limitTurnSpeed="5.50" xmlns:xsi="http://www.w3.org/2001/XMLSchema-instance" xsi:noNamespaceSchemaLocation="http://sumo.dlr.de/xsd/net_file.xsd">

    <location netOffset="0.00,0.00" convBoundary="0.00,0.00,500.00,500.00" origBoundary="0.00,0.00,500.00,500.00" projParameter="!"/>

    <edge id=":A0_0" function="internal">
        <lane id=":A0_0_0" index="0" speed="6.51" length="9.03" shape="245.20,260.40 244.85,257.95 243.80,256.20 242.05,255.15 239.60,254.80"/>
    </edge>
    <edge id=":A0_1" function="internal">
        <lane id=":A0_1_0" index="0" speed="13.89" length="20.80" shape="245.20,260.40 245.20,239.60"/>
        <lane id=":A0_1_1" index="1" speed="13.89" length="20.80" shape="248.40,260.40 248.40,239.60"/>
    </edge>
    <edge id=":A0_3" function="internal">
        <lane id=":A0_3_0" index="0" speed="9.26" length="19.35" shape="248.40,260.40 249.15,255.15 251.40,251.40 255.15,249.15 260.40,248.40"/>
    </edge>
    <edge id=":A0_4" function="internal">
        <lane id=":A0_4_0" index="0" speed="6.51" length="9.03" shape="260.40,254.80 257.95,255.15 256.20,256.20 255.15,257.95 254.80,260.40"/>
    </edge>
    <edge id=":A0_5" function="internal">
        <lane id=":A0_5_0" index="0" speed="13.89" length="20.80" shape="260.40,254.80 239.60,254.80"/>
        <lane id=":A0_5_1" index="1" speed="13.89" length="20.80" shape="260.40,251.60 239.60,251.60"/>
    </edge>
    <edge id=":A0_7" function="internal">
        <lane id=":A0_7_0" index="0" speed="9.26" length="19.35" shape="260.40,251.60 255.15,250.85 251.40,248.60 249.15,244.85 248.40,239.60"/>
    </edge>
    <edge id=":A0_8" function="internal">
        <lane id=":A0_8_0" index="0" speed="6.51" length="9.03" shape="254.80,239.60 255.15,242.05 256.20,243.80 257.95,244.85 260.40,245.20"/>
    </edge>
    <edge id=":A0_9" function="internal">
        <lane id=":A0_9_0" index="0" speed="13.89" length="20.80" shape="254.80,239.60 254.80,260.40"/>
        <lane id=":A0_9_1" index="1" speed="13.89" length="20.80" shape="251.60,239.60 251.60,260.40"/>
    </edge>
    <edge id=":A0_11" function="internal">
        <lane id=":A0_11_0" index="0" speed="9.26" length="19.35" shape="251.60,239.60 250.85,244.85 248.60,248.60 244.85,250.85 239.60,251.60"/>
    </edge>
    <edge id=":A0_12" function="internal">
        <lane id=":A0_12_0" index="0" speed="6.51" length="9.03" shape="239.60,245.20 242.05,244.85 243.80,243.80 244.85,242.05 245.20,239.60"/>
    </edge>
    <edge id=":A0_13" function="internal">
        <lane id=":A0_13_0" index="0" speed="13.89" length="20.80" shape="239.60,245.20 260.40,245.20"/>
        <lane id=":A0_13_1" index="1" speed="13.89" length="20.80" shape="239.60,248.40 260.40,248.40"/>
    </edge>
    <edge id=":A0_15" function="internal">
        <lane id=":A0_15_0" index="0" speed="9.26" length="19.35" shape="239.60,248.40 244.85,249.15 248.60,251.40 250.85,255.15 251.60,260.40"/>
    </edge>

    <edge id="A0bottom0" from="A0" to="bottom0" priority="-1">
        <lane id="A0bottom0_0" index="0" speed="13.89" length="239.60" shape="245.20,239.60 245.20,0.00"/>
        <lane id="A0bottom0_1" index="1" speed="13.89" length="239.60" shape="248.40,239.60 248.40,0.00"/>
    </edge>
    <edge id="A0left0" from="A0" to="left0" priority="-1">
        <lane id="A0left0_0" index="0" speed="13.89" length="239.60" shape="239.60,254.80 0.00,254.80"/>
        <lane id="A0left0_1" index="1" speed="13.89" length="239.60" shape="239.60,251.60 0.00,251.60"/>
    </edge>
    <edge id="A0right0" from="A0" to="right0" priority="-1">
        <lane id="A0right0_0" index="0" speed="13.89" length="239.60" shape="260.40,245.20 500.00,245.20"/>
        <lane id="A0right0_1" index="1" speed="13.89" length="239.60" shape="260.40,248.40 500.00,248.40"/>
    </edge>
    <edge id="A0top0" from="A0" to="top0" priority="-1">
        <lane id="A0top0_0" index="0" speed="13.89" length="239.60" shape="254.80,260.40 254.80,500.00"/>
        <lane id="A0top0_1" index="1" speed="13.89" length="239.60" shape="251.60,260.40 251.60,500.00"/>
    </edge>
    <edge id="bottom0A0" from="bottom0" to="A0" priority="-1">
        <lane id="bottom0A0_0" index="0" speed="13.89" length="239.60" shape="254.80,0.00 254.80,239.60"/>
        <lane id="bottom0A0_1" index="1" speed="13.89" length="239.60" shape="251.60,0.00 251.60,239.60"/>
    </edge>
    <edge id="left0A0" from="left0" to="A0" priority="-1">
        <lane id="left0A0_0" index="0" speed="13.89" length="239.60" shape="0.00,245.20 239.60,245.20"/>
        <lane id="left0A0_1" index="1" speed="13.89" length="239.60" shape="0.00,248.40 239.60,248.40"/>
    </edge>
    <edge id="right0A0" from="right0" to="A0" priority="-1">
        <lane id="right0A0_0" index="0" speed="13.89" length="239.60" shape="500.00,254.80 260.40,254.80"/>
        <lane id="right0A0_1" index="1" speed="13.89" length="239.60" shape="500.00,251.60 260.40,251.60"/>
    </edge>
    <edge id="top0A0" from="top0" to="A0" priority="-1">
        <lane id="top0A0_0" index="0" speed="13.89" length="239.60" shape="245.20,500.00 245.20,260.40"/>
        <lane id="top0A0_1" index="1" speed="13.89" length="239.60" shape="248.40,500.00 248.40,260.40"/>
    </edge>

    <tlLogic id="A0" type="static" programID="0" offset="0">
        <phase duration="13" state="GGGGrrrrrrrrrrrr"/>
        <phase duration="3"  state="yyyyrrrrrrrrrrrr"/>
        <phase duration="5"  state="rrrrrrrrrrrrrrrr"/>
        <phase duration="15" state="rrrrGGGGrrrrrrrr"/>
        <phase duration="3"  state="rrrryyyyrrrrrrrr"/>
        <phase duration="5"  state="rrrrrrrrrrrrrrrr"/>
        <phase duration="15" state="rrrrrrrrGGGGrrrr"/>
        <phase duration="3"  state="rrrrrrrryyyyrrrr"/>
        <phase duration="5"  state="rrrrrrrrrrrrrrrr"/>
        <phase duration="15" state="rrrrrrrrrrrrGGGG"/>
        <phase duration="3"  state="rrrrrrrrrrrryyyy"/>
        <phase duration="5"  state="rrrrrrrrrrrrrrrr"/>
    </tlLogic>

    <junction id="A0" type="traffic_light" x="250.00" y="250.00" incLanes="top0A0_0 top0A0_1 right0A0_0 right0A0_1 bottom0A0_0 bottom0A0_1 left0A0_0 left0A0_1" intLanes=":A0_0_0 :A0_1_0 :A0_1_1 :A0_3_0 :A0_4_0 :A0_5_0 :A0_5_1 :A0_7_0 :A0_8_0 :A0_9_0 :A0_9_1 :A0_11_0 :A0_12_0 :A0_13_0 :A0_13_1 :A0_15_0" shape="243.60,260.40 256.40,260.40 256.84,258.18 257.40,257.40 258.18,256.84 259.18,256.51 260.40,256.40 260.40,243.60 258.18,243.16 257.40,242.60 256.84,241.82 256.51,240.82 256.40,239.60 243.60,239.60 243.16,241.82 242.60,242.60 241.82,243.16 240.82,243.49 239.60,243.60 239.60,256.40 241.82,256.84 242.60,257.40 243.16,258.18 243.49,259.18">
        <request index="0"  response="0000000000000000" foes="0000000001100000" cont="0"/>
        <request index="1"  response="0000000000000000" foes="1111100011100000" cont="0"/>
        <request index="2"  response="0000000000000000" foes="1111100011100000" cont="0"/>
        <request index="3"  response="0000011000000000" foes="1110011011100000" cont="0"/>
        <request index="4"  response="0000011000000000" foes="0000011000000000" cont="0"/>
        <request index="5"  response="0000111000001111" foes="1000111000001111" cont="0"/>
        <request index="6"  response="0000111000001111" foes="1000111000001111" cont="0"/>
        <request index="7"  response="0110111000001110" foes="0110111000001110" cont="0"/>
        <request index="8"  response="0000000000000000" foes="0110000000000000" cont="0"/>
        <request index="9"  response="0000000000000000" foes="1110000011111000" cont="0"/>
        <request index="10" response="0000000000000000" foes="1110000011111000" cont="0"/>
        <request index="11" response="0000000000000110" foes="1110000011100110" cont="0"/>
        <request index="12" response="0000000000000110" foes="0000000000000110" cont="0"/>
        <request index="13" response="0000111100001110" foes="0000111110001110" cont="0"/>
        <request index="14" response="0000111100001110" foes="0000111110001110" cont="0"/>
        <request index="15" response="0000111001101110" foes="0000111001101110" cont="0"/>
    </junction>
    <junction id="bottom0" type="dead_end" x="250.00" y="0.00" incLanes="A0bottom0_0 A0bottom0_1" intLanes="" shape="250.00,0.00 243.60,0.00 250.00,0.00" fringe="outer"/>
    <junction id="left0" type="dead_end" x="0.00" y="250.00" incLanes="A0left0_0 A0left0_1" intLanes="" shape="0.00,250.00 0.00,256.40 0.00,250.00" fringe="outer"/>
    <junction id="right0" type="dead_end" x="500.00" y="250.00" incLanes="A0right0_0 A0right0_1" intLanes="" shape="500.00,250.00 500.00,243.60 500.00,250.00" fringe="outer"/>
    <junction id="top0" type="dead_end" x="250.00" y="500.00" incLanes="A0top0_0 A0top0_1" intLanes="" shape="250.00,500.00 256.40,500.00 250.00,500.00" fringe="outer"/>

    <connection from="bottom0A0" to="A0right0" fromLane="0" toLane="0" via=":A0_8_0" tl="A0" linkIndex="8" dir="r" state="O"/>
    <connection from="bottom0A0" to="A0top0" fromLane="0" toLane="0" via=":A0_9_0" tl="A0" linkIndex="9" dir="s" state="O"/>
    <connection from="bottom0A0" to="A0top0" fromLane="1" toLane="1" via=":A0_9_1" tl="A0" linkIndex="10" dir="s" state="O"/>
    <connection from="bottom0A0" to="A0left0" fromLane="1" toLane="1" via=":A0_11_0" tl="A0" linkIndex="11" dir="l" state="o"/>
    <connection from="left0A0" to="A0bottom0" fromLane="0" toLane="0" via=":A0_12_0" tl="A0" linkIndex="12" dir="r" state="o"/>
    <connection from="left0A0" to="A0right0" fromLane="0" toLane="0" via=":A0_13_0" tl="A0" linkIndex="13" dir="s" state="o"/>
    <connection from="left0A0" to="A0right0" fromLane="1" toLane="1" via=":A0_13_1" tl="A0" linkIndex="14" dir="s" state="o"/>
    <connection from="left0A0" to="A0top0" fromLane="1" toLane="1" via=":A0_15_0" tl="A0" linkIndex="15" dir="l" state="o"/>
    <connection from="right0A0" to="A0top0" fromLane="0" toLane="0" via=":A0_4_0" tl="A0" linkIndex="4" dir="r" state="o"/>
    <connection from="right0A0" to="A0left0" fromLane="0" toLane="0" via=":A0_5_0" tl="A0" linkIndex="5" dir="s" state="o"/>
    <connection from="right0A0" to="A0left0" fromLane="1" toLane="1" via=":A0_5_1" tl="A0" linkIndex="6" dir="s" state="o"/>
    <connection from="right0A0" to="A0bottom0" fromLane="1" toLane="1" via=":A0_7_0" tl="A0" linkIndex="7" dir="l" state="o"/>
    <connection from="top0A0" to="A0left0" fromLane="0" toLane="0" via=":A0_0_0" tl="A0" linkIndex="0" dir="r" state="O"/>
    <connection from="top0A0" to="A0bottom0" fromLane="0" toLane="0" via=":A0_1_0" tl="A0" linkIndex="1" dir="s" state="O"/>
    <connection from="top0A0" to="A0bottom0" fromLane="1" toLane="1" via=":A0_1_1" tl="A0" linkIndex="2" dir="s" state="O"/>
    <connection from="top0A0" to="A0right0" fromLane="1" toLane="1" via=":A0_3_0" tl="A0" linkIndex="3" dir="l" state="o"/>

    <connection from=":A0_0" to="A0left0" fromLane="0" toLane="0" dir="r" state="M"/>
    <connection from=":A0_1" to="A0bottom0" fromLane="0" toLane="0" dir="s" state="M"/>
    <connection from=":A0_1" to="A0bottom0" fromLane="1" toLane="1" dir="s" state="M"/>
    <connection from=":A0_3" to="A0right0" fromLane="0" toLane="1" dir="l" state="M"/>
    <connection from=":A0_4" to="A0top0" fromLane="0" toLane="0" dir="r" state="M"/>
    <connection from=":A0_5" to="A0left0" fromLane="0" toLane="0" dir="s" state="M"/>
    <connection from=":A0_5" to="A0left0" fromLane="1" toLane="1" dir="s" state="M"/>
    <connection from=":A0_7" to="A0bottom0" fromLane="0" toLane="1" dir="l" state="M"/>
    <connection from=":A0_8" to="A0right0" fromLane="0" toLane="0" dir="r" state="M"/>
    <connection from=":A0_9" to="A0top0" fromLane="0" toLane="0" dir="s" state="M"/>
    <connection from=":A0_9" to="A0top0" fromLane="1" toLane="1" dir="s" state="M"/>
    <connection from=":A0_11" to="A0left0" fromLane="0" toLane="1" dir="l" state="M"/>
    <connection from=":A0_12" to="A0bottom0" fromLane="0" toLane="0" dir="r" state="M"/>
    <connection from=":A0_13" to="A0right0" fromLane="0" toLane="0" dir="s" state="M"/>
    <connection from=":A0_13" to="A0right0" fromLane="1" toLane="1" dir="s" state="M"/>
    <connection from=":A0_15" to="A0top0" fromLane="0" toLane="1" dir="l" state="M"/>

</net>
