<?xml version="1.0" encoding="UTF-8"?>

<!-- generated on 2024-12-11 01:33:06.726403 by randomTrips.py UNKNOWN
<configuration>
    <net-file value="single-intersection.net.xml"/>
    <route-file value="single-intersection.rou.xml"/>
    <seed value="45"/>
    <end value="100.0"/>
    <period value="0.5"/>
    <random-depart value="True"/>
</configuration>
-->

<!-- generated on 2024-12-11 01:33:06 by Eclipse SUMO duarouter Version 1.21.0
<duarouterConfiguration xmlns:xsi="http://www.w3.org/2001/XMLSchema-instance" xsi:noNamespaceSchemaLocation="http://sumo.dlr.de/xsd/duarouterConfiguration.xsd">

    <input>
        <net-file value="single-intersection.net.xml"/>
        <route-files value="trips.trips.xml"/>
    </input>

    <output>
        <output-file value="single-intersection.rou.xml"/>
        <alternatives-output value="NUL"/>
    </output>

    <time>
        <begin value="0.0"/>
        <end value="100.0"/>
    </time>

    <report>
        <no-warnings value="true"/>
        <ignore-errors value="true"/>
        <no-step-log value="true"/>
    </report>

</duarouterConfiguration>
-->

<routes xmlns:xsi="http://www.w3.org/2001/XMLSchema-instance" xsi:noNamespaceSchemaLocation="http://sumo.dlr.de/xsd/routes_file.xsd">
    <vehicle id="0" depart="0.50">
        <route edges="left0A0 A0right0"/>
    </vehicle>
    <vehicle id="1" depart="1.00">
        <route edges="top0A0 A0right0"/>
    </vehicle>
    <vehicle id="2" depart="2.00">
        <route edges="top0A0 A0bottom0"/>
    </vehicle>
    <vehicle id="4" depart="3.50">
        <route edges="top0A0 A0left0"/>
    </vehicle>
    <vehicle id="6" depart="4.50">
        <route edges="bottom0A0 A0right0"/>
    </vehicle>
    <vehicle id="7" depart="5.00">
        <route edges="right0A0 A0left0"/>
    </vehicle>
    <vehicle id="9" depart="5.50">
        <route edges="right0A0 A0bottom0"/>
    </vehicle>
    <vehicle id="10" depart="6.00">
        <route edges="bottom0A0 A0left0"/>
    </vehicle>
    <vehicle id="11" depart="6.00">
        <route edges="left0A0 A0top0"/>
    </vehicle>
    <vehicle id="12" depart="6.50">
        <route edges="top0A0 A0right0"/>
    </vehicle>
    <vehicle id="13" depart="7.00">
        <route edges="right0A0 A0left0"/>
    </vehicle>
    <vehicle id="14" depart="7.50">
        <route edges="right0A0 A0bottom0"/>
    </vehicle>
    <vehicle id="15" depart="7.50">
        <route edges="bottom0A0 A0top0"/>
    </vehicle>
    <vehicle id="17" depart="8.50">
        <route edges="top0A0 A0right0"/>
    </vehicle>
    <vehicle id="18" depart="9.00">
        <route edges="bottom0A0 A0left0"/>
    </vehicle>
    <vehicle id="19" depart="9.50">
        <route edges="top0A0 A0left0"/>
    </vehicle>
    <vehicle id="20" depart="9.50">
        <route edges="top0A0 A0bottom0"/>
    </vehicle>
    <vehicle id="21" depart="10.00">
        <route edges="left0A0 A0bottom0"/>
    </vehicle>
    <vehicle id="22" depart="10.50">
        <route edges="left0A0 A0bottom0"/>
    </vehicle>
    <vehicle id="24" depart="11.00">
        <route edges="top0A0 A0bottom0"/>
    </vehicle>
    <vehicle id="25" depart="12.00">
        <route edges="top0A0 A0right0"/>
    </vehicle>
    <vehicle id="26" depart="12.00">
        <route edges="left0A0 A0right0"/>
    </vehicle>
    <vehicle id="27" depart="12.00">
        <route edges="right0A0 A0left0"/>
    </vehicle>
    <vehicle id="28" depart="12.50">
        <route edges="left0A0 A0bottom0"/>
    </vehicle>
    <vehicle id="29" depart="13.00">
        <route edges="bottom0A0 A0top0"/>
    </vehicle>
    <vehicle id="30" depart="13.00">
        <route edges="left0A0 A0right0"/>
    </vehicle>
    <vehicle id="31" depart="13.00">
        <route edges="left0A0 A0bottom0"/>
    </vehicle>
    <vehicle id="32" depart="15.00">
        <route edges="left0A0 A0bottom0"/>
    </vehicle>
    <vehicle id="33" depart="16.00">
        <route edges="left0A0 A0bottom0"/>
    </vehicle>
    <vehicle id="34" depart="16.50">
        <route edges="bottom0A0 A0top0"/>
    </vehicle>
    <vehicle id="35" depart="16.50">
        <route edges="left0A0 A0right0"/>
    </vehicle>
    <vehicle id="37" depart="17.00">
        <route edges="top0A0 A0left0"/>
    </vehicle>
    <vehicle id="38" depart="18.00">
        <route edges="right0A0 A0bottom0"/>
    </vehicle>
    <vehicle id="40" depart="18.50">
        <route edges="left0A0 A0top0"/>
    </vehicle>
    <vehicle id="42" depart="20.00">
        <route edges="left0A0 A0right0"/>
    </vehicle>
    <vehicle id="44" depart="22.00">
        <route edges="left0A0 A0right0"/>
    </vehicle>
    <vehicle id="45" depart="23.50">
        <route edges="right0A0 A0bottom0"/>
    </vehicle>
    <vehicle id="46" depart="25.00">
        <route edges="top0A0 A0right0"/>
    </vehicle>
    <vehicle id="47" depart="26.00">
        <route edges="bottom0A0 A0right0"/>
    </vehicle>
    <vehicle id="48" depart="26.50">
        <route edges="top0A0 A0bottom0"/>
    </vehicle>
    <vehicle id="49" depart="27.50">
        <route edges="bottom0A0 A0right0"/>
    </vehicle>
    <vehicle id="50" depart="28.00">
        <route edges="bottom0A0 A0top0"/>
    </vehicle>
    <vehicle id="51" depart="28.50">
        <route edges="right0A0 A0left0"/>
    </vehicle>
    <vehicle id="52" depart="28.50">
        <route edges="left0A0 A0top0"/>
    </vehicle>
    <vehicle id="53" depart="28.50">
        <route edges="left0A0 A0right0"/>
    </vehicle>
    <vehicle id="54" depart="29.50">
        <route edges="left0A0 A0top0"/>
    </vehicle>
    <vehicle id="55" depart="30.00">
        <route edges="left0A0 A0bottom0"/>
    </vehicle>
    <vehicle id="56" depart="31.00">
        <route edges="left0A0 A0right0"/>
    </vehicle>
    <vehicle id="58" depart="32.50">
        <route edges="top0A0 A0bottom0"/>
    </vehicle>
    <vehicle id="59" depart="32.50">
        <route edges="right0A0 A0top0"/>
    </vehicle>
    <vehicle id="61" depart="33.00">
        <route edges="right0A0 A0left0"/>
    </vehicle>
    <vehicle id="62" depart="33.50">
        <route edges="top0A0 A0right0"/>
    </vehicle>
    <vehicle id="63" depart="34.00">
        <route edges="left0A0 A0top0"/>
    </vehicle>
    <vehicle id="67" depart="35.00">
        <route edges="top0A0 A0bottom0"/>
    </vehicle>
    <vehicle id="69" depart="36.00">
        <route edges="bottom0A0 A0right0"/>
    </vehicle>
    <vehicle id="70" depart="36.00">
        <route edges="left0A0 A0right0"/>
    </vehicle>
    <vehicle id="72" depart="37.00">
        <route edges="top0A0 A0left0"/>
    </vehicle>
    <vehicle id="73" depart="38.50">
        <route edges="right0A0 A0left0"/>
    </vehicle>
    <vehicle id="74" depart="38.50">
        <route edges="top0A0 A0bottom0"/>
    </vehicle>
    <vehicle id="76" depart="39.50">
        <route edges="left0A0 A0top0"/>
    </vehicle>
    <vehicle id="77" depart="40.50">
        <route edges="top0A0 A0left0"/>
    </vehicle>
    <vehicle id="78" depart="41.00">
        <route edges="left0A0 A0right0"/>
    </vehicle>
    <vehicle id="79" depart="43.00">
        <route edges="bottom0A0 A0left0"/>
    </vehicle>
    <vehicle id="80" depart="43.00">
        <route edges="bottom0A0 A0right0"/>
    </vehicle>
    <vehicle id="81" depart="43.00">
        <route edges="left0A0 A0bottom0"/>
    </vehicle>
    <vehicle id="82" depart="43.50">
        <route edges="top0A0 A0right0"/>
    </vehicle>
    <vehicle id="83" depart="44.00">
        <route edges="right0A0 A0bottom0"/>
    </vehicle>
    <vehicle id="84" depart="45.00">
        <route edges="right0A0 A0left0"/>
    </vehicle>
    <vehicle id="85" depart="45.50">
        <route edges="top0A0 A0bottom0"/>
    </vehicle>
    <vehicle id="86" depart="46.00">
        <route edges="bottom0A0 A0left0"/>
    </vehicle>
    <vehicle id="88" depart="48.00">
        <route edges="top0A0 A0right0"/>
    </vehicle>
    <vehicle id="89" depart="48.00">
        <route edges="right0A0 A0bottom0"/>
    </vehicle>
    <vehicle id="90" depart="48.00">
        <route edges="right0A0 A0top0"/>
    </vehicle>
    <vehicle id="93" depart="50.00">
        <route edges="top0A0 A0right0"/>
    </vehicle>
    <vehicle id="96" depart="51.00">
        <route edges="left0A0 A0bottom0"/>
    </vehicle>
    <vehicle id="97" depart="52.00">
        <route edges="bottom0A0 A0right0"/>
    </vehicle>
    <vehicle id="98" depart="52.00">
        <route edges="right0A0 A0left0"/>
    </vehicle>
    <vehicle id="100" depart="52.50">
        <route edges="top0A0 A0right0"/>
    </vehicle>
    <vehicle id="101" depart="52.50">
        <route edges="top0A0 A0left0"/>
    </vehicle>
    <vehicle id="102" depart="52.50">
        <route edges="top0A0 A0right0"/>
    </vehicle>
    <vehicle id="104" depart="53.50">
        <route edges="bottom0A0 A0top0"/>
    </vehicle>
    <vehicle id="105" depart="53.50">
        <route edges="right0A0 A0top0"/>
    </vehicle>
    <vehicle id="106" depart="54.00">
        <route edges="bottom0A0 A0top0"/>
    </vehicle>
    <vehicle id="107" depart="56.00">
        <route edges="right0A0 A0top0"/>
    </vehicle>
    <vehicle id="109" depart="57.50">
        <route edges="right0A0 A0left0"/>
    </vehicle>
    <vehicle id="110" depart="57.50">
        <route edges="right0A0 A0top0"/>
    </vehicle>
    <vehicle id="111" depart="57.50">
        <route edges="left0A0 A0top0"/>
    </vehicle>
    <vehicle id="112" depart="58.00">
        <route edges="top0A0 A0right0"/>
    </vehicle>
    <vehicle id="113" depart="58.50">
        <route edges="top0A0 A0bottom0"/>
    </vehicle>
    <vehicle id="114" depart="59.50">
        <route edges="right0A0 A0top0"/>
    </vehicle>
    <vehicle id="115" depart="59.50">
        <route edges="left0A0 A0right0"/>
    </vehicle>
    <vehicle id="116" depart="59.50">
        <route edges="bottom0A0 A0top0"/>
    </vehicle>
    <vehicle id="117" depart="62.00">
        <route edges="bottom0A0 A0top0"/>
    </vehicle>
    <vehicle id="118" depart="63.50">
        <route edges="right0A0 A0bottom0"/>
    </vehicle>
    <vehicle id="119" depart="63.50">
        <route edges="right0A0 A0bottom0"/>
    </vehicle>
    <vehicle id="120" depart="64.50">
        <route edges="left0A0 A0right0"/>
    </vehicle>
    <vehicle id="121" depart="66.00">
        <route edges="bottom0A0 A0top0"/>
    </vehicle>
    <vehicle id="123" depart="66.50">
        <route edges="left0A0 A0bottom0"/>
    </vehicle>
    <vehicle id="125" depart="67.00">
        <route edges="top0A0 A0right0"/>
    </vehicle>
    <vehicle id="126" depart="67.00">
        <route edges="right0A0 A0left0"/>
    </vehicle>
    <vehicle id="127" depart="67.50">
        <route edges="bottom0A0 A0right0"/>
    </vehicle>
    <vehicle id="128" depart="68.00">
        <route edges="top0A0 A0right0"/>
    </vehicle>
    <vehicle id="129" depart="68.00">
        <route edges="bottom0A0 A0right0"/>
    </vehicle>
    <vehicle id="130" depart="68.00">
        <route edges="top0A0 A0left0"/>
    </vehicle>
    <vehicle id="131" depart="68.00">
        <route edges="right0A0 A0bottom0"/>
    </vehicle>
    <vehicle id="133" depart="70.00">
        <route edges="top0A0 A0left0"/>
    </vehicle>
    <vehicle id="136" depart="72.00">
        <route edges="right0A0 A0bottom0"/>
    </vehicle>
    <vehicle id="137" depart="72.50">
        <route edges="right0A0 A0left0"/>
    </vehicle>
    <vehicle id="138" depart="73.00">
        <route edges="top0A0 A0bottom0"/>
    </vehicle>
    <vehicle id="139" depart="73.50">
        <route edges="left0A0 A0top0"/>
    </vehicle>
    <vehicle id="140" depart="73.50">
        <route edges="bottom0A0 A0top0"/>
    </vehicle>
    <vehicle id="142" depart="74.00">
        <route edges="bottom0A0 A0right0"/>
    </vehicle>
    <vehicle id="143" depart="74.00">
        <route edges="top0A0 A0bottom0"/>
    </vehicle>
    <vehicle id="144" depart="75.00">
        <route edges="bottom0A0 A0top0"/>
    </vehicle>
    <vehicle id="145" depart="75.00">
        <route edges="top0A0 A0right0"/>
    </vehicle>
    <vehicle id="146" depart="75.00">
        <route edges="top0A0 A0right0"/>
    </vehicle>
    <vehicle id="147" depart="75.50">
        <route edges="bottom0A0 A0top0"/>
    </vehicle>
    <vehicle id="148" depart="75.50">
        <route edges="left0A0 A0bottom0"/>
    </vehicle>
    <vehicle id="149" depart="77.00">
        <route edges="left0A0 A0bottom0"/>
    </vehicle>
    <vehicle id="150" depart="77.00">
        <route edges="bottom0A0 A0top0"/>
    </vehicle>
    <vehicle id="151" depart="78.50">
        <route edges="left0A0 A0bottom0"/>
    </vehicle>
    <vehicle id="152" depart="78.50">
        <route edges="top0A0 A0bottom0"/>
    </vehicle>
    <vehicle id="153" depart="79.00">
        <route edges="left0A0 A0right0"/>
    </vehicle>
    <vehicle id="154" depart="79.00">
        <route edges="left0A0 A0top0"/>
    </vehicle>
    <vehicle id="156" depart="79.50">
        <route edges="left0A0 A0bottom0"/>
    </vehicle>
    <vehicle id="157" depart="79.50">
        <route edges="left0A0 A0bottom0"/>
    </vehicle>
    <vehicle id="158" depart="79.50">
        <route edges="bottom0A0 A0left0"/>
    </vehicle>
    <vehicle id="159" depart="79.50">
        <route edges="left0A0 A0bottom0"/>
    </vehicle>
    <vehicle id="161" depart="80.00">
        <route edges="top0A0 A0left0"/>
    </vehicle>
    <vehicle id="162" depart="81.00">
        <route edges="right0A0 A0left0"/>
    </vehicle>
    <vehicle id="165" depart="82.00">
        <route edges="top0A0 A0bottom0"/>
    </vehicle>
    <vehicle id="166" depart="82.50">
        <route edges="top0A0 A0right0"/>
    </vehicle>
    <vehicle id="168" depart="83.00">
        <route edges="top0A0 A0bottom0"/>
    </vehicle>
    <vehicle id="169" depart="83.50">
        <route edges="left0A0 A0right0"/>
    </vehicle>
    <vehicle id="170" depart="84.00">
        <route edges="top0A0 A0bottom0"/>
    </vehicle>
    <vehicle id="171" depart="84.00">
        <route edges="left0A0 A0bottom0"/>
    </vehicle>
    <vehicle id="172" depart="84.50">
        <route edges="left0A0 A0top0"/>
    </vehicle>
    <vehicle id="173" depart="84.50">
        <route edges="right0A0 A0top0"/>
    </vehicle>
    <vehicle id="174" depart="85.00">
        <route edges="right0A0 A0bottom0"/>
    </vehicle>
    <vehicle id="176" depart="87.00">
        <route edges="bottom0A0 A0top0"/>
    </vehicle>
    <vehicle id="178" depart="88.00">
        <route edges="bottom0A0 A0top0"/>
    </vehicle>
    <vehicle id="179" depart="88.50">
        <route edges="top0A0 A0bottom0"/>
    </vehicle>
    <vehicle id="181" depart="89.00">
        <route edges="left0A0 A0top0"/>
    </vehicle>
    <vehicle id="182" depart="89.50">
        <route edges="top0A0 A0bottom0"/>
    </vehicle>
    <vehicle id="183" depart="89.50">
        <route edges="bottom0A0 A0top0"/>
    </vehicle>
    <vehicle id="185" depart="91.00">
        <route edges="left0A0 A0right0"/>
    </vehicle>
    <vehicle id="187" depart="92.00">
        <route edges="left0A0 A0right0"/>
    </vehicle>
    <vehicle id="190" depart="93.50">
        <route edges="left0A0 A0bottom0"/>
    </vehicle>
    <vehicle id="191" depart="94.50">
        <route edges="top0A0 A0bottom0"/>
    </vehicle>
    <vehicle id="193" depart="96.00">
        <route edges="top0A0 A0right0"/>
    </vehicle>
    <vehicle id="194" depart="96.00">
        <route edges="left0A0 A0bottom0"/>
    </vehicle>
    <vehicle id="195" depart="96.50">
        <route edges="top0A0 A0bottom0"/>
    </vehicle>
    <vehicle id="196" depart="98.00">
        <route edges="top0A0 A0bottom0"/>
    </vehicle>
    <vehicle id="197" depart="98.00">
        <route edges="top0A0 A0bottom0"/>
    </vehicle>
    <vehicle id="198" depart="99.50">
        <route edges="top0A0 A0left0"/>
    </vehicle>
    <vehicle id="199" depart="99.50">
        <route edges="bottom0A0 A0top0"/>
    </vehicle>
</routes>
