<?xml version="1.0" encoding="UTF-8"?>

<!-- generated on 2024-12-11 01:33:06.665685 by randomTrips.py UNKNOWN
<configuration>
    <net-file value="single-intersection.net.xml"/>
    <route-file value="single-intersection.rou.xml"/>
    <seed value="45"/>
    <end value="100.0"/>
    <period value="0.5"/>
    <random-depart value="True"/>
</configuration>
-->

<routes xmlns:xsi="http://www.w3.org/2001/XMLSchema-instance" xsi:noNamespaceSchemaLocation="http://sumo.dlr.de/xsd/routes_file.xsd">
    <trip id="0" depart="0.50" from="left0A0" to="A0right0"/>
    <trip id="1" depart="1.00" from="top0A0" to="A0right0"/>
    <trip id="2" depart="2.00" from="top0A0" to="A0bottom0"/>
    <trip id="3" depart="2.50" from="bottom0A0" to="A0bottom0"/>
    <trip id="4" depart="3.50" from="top0A0" to="A0left0"/>
    <trip id="5" depart="4.00" from="bottom0A0" to="A0bottom0"/>
    <trip id="6" depart="4.50" from="bottom0A0" to="A0right0"/>
    <trip id="7" depart="5.00" from="right0A0" to="A0left0"/>
    <trip id="8" depart="5.50" from="bottom0A0" to="A0bottom0"/>
    <trip id="9" depart="5.50" from="right0A0" to="A0bottom0"/>
    <trip id="10" depart="6.00" from="bottom0A0" to="A0left0"/>
    <trip id="11" depart="6.00" from="left0A0" to="A0top0"/>
    <trip id="12" depart="6.50" from="top0A0" to="A0right0"/>
    <trip id="13" depart="7.00" from="right0A0" to="A0left0"/>
    <trip id="14" depart="7.50" from="right0A0" to="A0bottom0"/>
    <trip id="15" depart="7.50" from="bottom0A0" to="A0top0"/>
    <trip id="16" depart="8.00" from="left0A0" to="A0left0"/>
    <trip id="17" depart="8.50" from="top0A0" to="A0right0"/>
    <trip id="18" depart="9.00" from="bottom0A0" to="A0left0"/>
    <trip id="19" depart="9.50" from="top0A0" to="A0left0"/>
    <trip id="20" depart="9.50" from="top0A0" to="A0bottom0"/>
    <trip id="21" depart="10.00" from="left0A0" to="A0bottom0"/>
    <trip id="22" depart="10.50" from="left0A0" to="A0bottom0"/>
    <trip id="23" depart="10.50" from="right0A0" to="A0right0"/>
    <trip id="24" depart="11.00" from="top0A0" to="A0bottom0"/>
    <trip id="25" depart="12.00" from="top0A0" to="A0right0"/>
    <trip id="26" depart="12.00" from="left0A0" to="A0right0"/>
    <trip id="27" depart="12.00" from="right0A0" to="A0left0"/>
    <trip id="28" depart="12.50" from="left0A0" to="A0bottom0"/>
    <trip id="29" depart="13.00" from="bottom0A0" to="A0top0"/>
    <trip id="30" depart="13.00" from="left0A0" to="A0right0"/>
    <trip id="31" depart="13.00" from="left0A0" to="A0bottom0"/>
    <trip id="32" depart="15.00" from="left0A0" to="A0bottom0"/>
    <trip id="33" depart="16.00" from="left0A0" to="A0bottom0"/>
    <trip id="34" depart="16.50" from="bottom0A0" to="A0top0"/>
    <trip id="35" depart="16.50" from="left0A0" to="A0right0"/>
    <trip id="36" depart="17.00" from="top0A0" to="A0top0"/>
    <trip id="37" depart="17.00" from="top0A0" to="A0left0"/>
    <trip id="38" depart="18.00" from="right0A0" to="A0bottom0"/>
    <trip id="39" depart="18.50" from="right0A0" to="A0right0"/>
    <trip id="40" depart="18.50" from="left0A0" to="A0top0"/>
    <trip id="41" depart="19.00" from="top0A0" to="A0top0"/>
    <trip id="42" depart="20.00" from="left0A0" to="A0right0"/>
    <trip id="43" depart="20.50" from="top0A0" to="A0top0"/>
    <trip id="44" depart="22.00" from="left0A0" to="A0right0"/>
    <trip id="45" depart="23.50" from="right0A0" to="A0bottom0"/>
    <trip id="46" depart="25.00" from="top0A0" to="A0right0"/>
    <trip id="47" depart="26.00" from="bottom0A0" to="A0right0"/>
    <trip id="48" depart="26.50" from="top0A0" to="A0bottom0"/>
    <trip id="49" depart="27.50" from="bottom0A0" to="A0right0"/>
    <trip id="50" depart="28.00" from="bottom0A0" to="A0top0"/>
    <trip id="51" depart="28.50" from="right0A0" to="A0left0"/>
    <trip id="52" depart="28.50" from="left0A0" to="A0top0"/>
    <trip id="53" depart="28.50" from="left0A0" to="A0right0"/>
    <trip id="54" depart="29.50" from="left0A0" to="A0top0"/>
    <trip id="55" depart="30.00" from="left0A0" to="A0bottom0"/>
    <trip id="56" depart="31.00" from="left0A0" to="A0right0"/>
    <trip id="57" depart="31.00" from="right0A0" to="A0right0"/>
    <trip id="58" depart="32.50" from="top0A0" to="A0bottom0"/>
    <trip id="59" depart="32.50" from="right0A0" to="A0top0"/>
    <trip id="60" depart="33.00" from="top0A0" to="A0top0"/>
    <trip id="61" depart="33.00" from="right0A0" to="A0left0"/>
    <trip id="62" depart="33.50" from="top0A0" to="A0right0"/>
    <trip id="63" depart="34.00" from="left0A0" to="A0top0"/>
    <trip id="64" depart="34.50" from="top0A0" to="A0top0"/>
    <trip id="65" depart="34.50" from="top0A0" to="A0top0"/>
    <trip id="66" depart="34.50" from="left0A0" to="A0left0"/>
    <trip id="67" depart="35.00" from="top0A0" to="A0bottom0"/>
    <trip id="68" depart="36.00" from="top0A0" to="A0top0"/>
    <trip id="69" depart="36.00" from="bottom0A0" to="A0right0"/>
    <trip id="70" depart="36.00" from="left0A0" to="A0right0"/>
    <trip id="71" depart="36.50" from="top0A0" to="A0top0"/>
    <trip id="72" depart="37.00" from="top0A0" to="A0left0"/>
    <trip id="73" depart="38.50" from="right0A0" to="A0left0"/>
    <trip id="74" depart="38.50" from="top0A0" to="A0bottom0"/>
    <trip id="75" depart="39.50" from="right0A0" to="A0right0"/>
    <trip id="76" depart="39.50" from="left0A0" to="A0top0"/>
    <trip id="77" depart="40.50" from="top0A0" to="A0left0"/>
    <trip id="78" depart="41.00" from="left0A0" to="A0right0"/>
    <trip id="79" depart="43.00" from="bottom0A0" to="A0left0"/>
    <trip id="80" depart="43.00" from="bottom0A0" to="A0right0"/>
    <trip id="81" depart="43.00" from="left0A0" to="A0bottom0"/>
    <trip id="82" depart="43.50" from="top0A0" to="A0right0"/>
    <trip id="83" depart="44.00" from="right0A0" to="A0bottom0"/>
    <trip id="84" depart="45.00" from="right0A0" to="A0left0"/>
    <trip id="85" depart="45.50" from="top0A0" to="A0bottom0"/>
    <trip id="86" depart="46.00" from="bottom0A0" to="A0left0"/>
    <trip id="87" depart="46.50" from="bottom0A0" to="A0bottom0"/>
    <trip id="88" depart="48.00" from="top0A0" to="A0right0"/>
    <trip id="89" depart="48.00" from="right0A0" to="A0bottom0"/>
    <trip id="90" depart="48.00" from="right0A0" to="A0top0"/>
    <trip id="91" depart="48.00" from="bottom0A0" to="A0bottom0"/>
    <trip id="92" depart="49.50" from="left0A0" to="A0left0"/>
    <trip id="93" depart="50.00" from="top0A0" to="A0right0"/>
    <trip id="94" depart="50.00" from="left0A0" to="A0left0"/>
    <trip id="95" depart="51.00" from="bottom0A0" to="A0bottom0"/>
    <trip id="96" depart="51.00" from="left0A0" to="A0bottom0"/>
    <trip id="97" depart="52.00" from="bottom0A0" to="A0right0"/>
    <trip id="98" depart="52.00" from="right0A0" to="A0left0"/>
    <trip id="99" depart="52.00" from="right0A0" to="A0right0"/>
    <trip id="100" depart="52.50" from="top0A0" to="A0right0"/>
    <trip id="101" depart="52.50" from="top0A0" to="A0left0"/>
    <trip id="102" depart="52.50" from="top0A0" to="A0right0"/>
    <trip id="103" depart="53.00" from="top0A0" to="A0top0"/>
    <trip id="104" depart="53.50" from="bottom0A0" to="A0top0"/>
    <trip id="105" depart="53.50" from="right0A0" to="A0top0"/>
    <trip id="106" depart="54.00" from="bottom0A0" to="A0top0"/>
    <trip id="107" depart="56.00" from="right0A0" to="A0top0"/>
    <trip id="108" depart="56.00" from="left0A0" to="A0left0"/>
    <trip id="109" depart="57.50" from="right0A0" to="A0left0"/>
    <trip id="110" depart="57.50" from="right0A0" to="A0top0"/>
    <trip id="111" depart="57.50" from="left0A0" to="A0top0"/>
    <trip id="112" depart="58.00" from="top0A0" to="A0right0"/>
    <trip id="113" depart="58.50" from="top0A0" to="A0bottom0"/>
    <trip id="114" depart="59.50" from="right0A0" to="A0top0"/>
    <trip id="115" depart="59.50" from="left0A0" to="A0right0"/>
    <trip id="116" depart="59.50" from="bottom0A0" to="A0top0"/>
    <trip id="117" depart="62.00" from="bottom0A0" to="A0top0"/>
    <trip id="118" depart="63.50" from="right0A0" to="A0bottom0"/>
    <trip id="119" depart="63.50" from="right0A0" to="A0bottom0"/>
    <trip id="120" depart="64.50" from="left0A0" to="A0right0"/>
    <trip id="121" depart="66.00" from="bottom0A0" to="A0top0"/>
    <trip id="122" depart="66.00" from="right0A0" to="A0right0"/>
    <trip id="123" depart="66.50" from="left0A0" to="A0bottom0"/>
    <trip id="124" depart="66.50" from="right0A0" to="A0right0"/>
    <trip id="125" depart="67.00" from="top0A0" to="A0right0"/>
    <trip id="126" depart="67.00" from="right0A0" to="A0left0"/>
    <trip id="127" depart="67.50" from="bottom0A0" to="A0right0"/>
    <trip id="128" depart="68.00" from="top0A0" to="A0right0"/>
    <trip id="129" depart="68.00" from="bottom0A0" to="A0right0"/>
    <trip id="130" depart="68.00" from="top0A0" to="A0left0"/>
    <trip id="131" depart="68.00" from="right0A0" to="A0bottom0"/>
    <trip id="132" depart="70.00" from="right0A0" to="A0right0"/>
    <trip id="133" depart="70.00" from="top0A0" to="A0left0"/>
    <trip id="134" depart="70.50" from="left0A0" to="A0left0"/>
    <trip id="135" depart="71.50" from="top0A0" to="A0top0"/>
    <trip id="136" depart="72.00" from="right0A0" to="A0bottom0"/>
    <trip id="137" depart="72.50" from="right0A0" to="A0left0"/>
    <trip id="138" depart="73.00" from="top0A0" to="A0bottom0"/>
    <trip id="139" depart="73.50" from="left0A0" to="A0top0"/>
    <trip id="140" depart="73.50" from="bottom0A0" to="A0top0"/>
    <trip id="141" depart="73.50" from="right0A0" to="A0right0"/>
    <trip id="142" depart="74.00" from="bottom0A0" to="A0right0"/>
    <trip id="143" depart="74.00" from="top0A0" to="A0bottom0"/>
    <trip id="144" depart="75.00" from="bottom0A0" to="A0top0"/>
    <trip id="145" depart="75.00" from="top0A0" to="A0right0"/>
    <trip id="146" depart="75.00" from="top0A0" to="A0right0"/>
    <trip id="147" depart="75.50" from="bottom0A0" to="A0top0"/>
    <trip id="148" depart="75.50" from="left0A0" to="A0bottom0"/>
    <trip id="149" depart="77.00" from="left0A0" to="A0bottom0"/>
    <trip id="150" depart="77.00" from="bottom0A0" to="A0top0"/>
    <trip id="151" depart="78.50" from="left0A0" to="A0bottom0"/>
    <trip id="152" depart="78.50" from="top0A0" to="A0bottom0"/>
    <trip id="153" depart="79.00" from="left0A0" to="A0right0"/>
    <trip id="154" depart="79.00" from="left0A0" to="A0top0"/>
    <trip id="155" depart="79.00" from="top0A0" to="A0top0"/>
    <trip id="156" depart="79.50" from="left0A0" to="A0bottom0"/>
    <trip id="157" depart="79.50" from="left0A0" to="A0bottom0"/>
    <trip id="158" depart="79.50" from="bottom0A0" to="A0left0"/>
    <trip id="159" depart="79.50" from="left0A0" to="A0bottom0"/>
    <trip id="160" depart="79.50" from="bottom0A0" to="A0bottom0"/>
    <trip id="161" depart="80.00" from="top0A0" to="A0left0"/>
    <trip id="162" depart="81.00" from="right0A0" to="A0left0"/>
    <trip id="163" depart="81.50" from="left0A0" to="A0left0"/>
    <trip id="164" depart="82.00" from="left0A0" to="A0left0"/>
    <trip id="165" depart="82.00" from="top0A0" to="A0bottom0"/>
    <trip id="166" depart="82.50" from="top0A0" to="A0right0"/>
    <trip id="167" depart="82.50" from="top0A0" to="A0top0"/>
    <trip id="168" depart="83.00" from="top0A0" to="A0bottom0"/>
    <trip id="169" depart="83.50" from="left0A0" to="A0right0"/>
    <trip id="170" depart="84.00" from="top0A0" to="A0bottom0"/>
    <trip id="171" depart="84.00" from="left0A0" to="A0bottom0"/>
    <trip id="172" depart="84.50" from="left0A0" to="A0top0"/>
    <trip id="173" depart="84.50" from="right0A0" to="A0top0"/>
    <trip id="174" depart="85.00" from="right0A0" to="A0bottom0"/>
    <trip id="175" depart="85.50" from="left0A0" to="A0left0"/>
    <trip id="176" depart="87.00" from="bottom0A0" to="A0top0"/>
    <trip id="177" depart="88.00" from="top0A0" to="A0top0"/>
    <trip id="178" depart="88.00" from="bottom0A0" to="A0top0"/>
    <trip id="179" depart="88.50" from="top0A0" to="A0bottom0"/>
    <trip id="180" depart="89.00" from="bottom0A0" to="A0bottom0"/>
    <trip id="181" depart="89.00" from="left0A0" to="A0top0"/>
    <trip id="182" depart="89.50" from="top0A0" to="A0bottom0"/>
    <trip id="183" depart="89.50" from="bottom0A0" to="A0top0"/>
    <trip id="184" depart="91.00" from="top0A0" to="A0top0"/>
    <trip id="185" depart="91.00" from="left0A0" to="A0right0"/>
    <trip id="186" depart="91.00" from="top0A0" to="A0top0"/>
    <trip id="187" depart="92.00" from="left0A0" to="A0right0"/>
    <trip id="188" depart="92.50" from="top0A0" to="A0top0"/>
    <trip id="189" depart="92.50" from="bottom0A0" to="A0bottom0"/>
    <trip id="190" depart="93.50" from="left0A0" to="A0bottom0"/>
    <trip id="191" depart="94.50" from="top0A0" to="A0bottom0"/>
    <trip id="192" depart="95.50" from="left0A0" to="A0left0"/>
    <trip id="193" depart="96.00" from="top0A0" to="A0right0"/>
    <trip id="194" depart="96.00" from="left0A0" to="A0bottom0"/>
    <trip id="195" depart="96.50" from="top0A0" to="A0bottom0"/>
    <trip id="196" depart="98.00" from="top0A0" to="A0bottom0"/>
    <trip id="197" depart="98.00" from="top0A0" to="A0bottom0"/>
    <trip id="198" depart="99.50" from="top0A0" to="A0left0"/>
    <trip id="199" depart="99.50" from="bottom0A0" to="A0top0"/>
</routes>
